<?xml version="1.0" encoding="UTF-8"?>

<!-- generated on 2022-04-09 16:55:48 by Eclipse SUMO netedit Version 1.12.0
<configuration xmlns:xsi="http://www.w3.org/2001/XMLSchema-instance" xsi:noNamespaceSchemaLocation="http://sumo.dlr.de/xsd/netconvertConfiguration.xsd">

    <input>
        <sumo-net-file value="C:\Users\kevin\OneDrive\桌面\case%20study\demonstration.net.xml"/>
    </input>

    <output>
        <output-file value="C:\Users\kevin\OneDrive\桌面\case%20study\demonstration.net.xml"/>
    </output>

    <processing>
        <geometry.min-radius.fix.railways value="false"/>
        <geometry.max-grade.fix value="false"/>
        <offset.disable-normalization value="true"/>
        <lefthand value="false"/>
    </processing>

    <junctions>
        <no-turnarounds value="true"/>
        <junctions.corner-detail value="5"/>
        <junctions.limit-turn-speed value="5.5"/>
        <rectangular-lane-cut value="false"/>
    </junctions>

    <pedestrian>
        <walkingareas value="false"/>
    </pedestrian>

    <netedit>
        <additional-files value="C:\Users\kevin\OneDrive\桌面\case%20study\demonstration.add.xml"/>
    </netedit>

    <report>
        <aggregate-warnings value="5"/>
    </report>

</configuration>
-->
<additional xmlns:xsi="http://www.w3.org/2001/XMLSchema-instance" xsi:noNamespaceSchemaLocation="http://sumo.dlr.de/xsd/additional_file.xsd">

    <busStop id="ST1" lane="R2_1" startPos="0.00" endPos="43.00" personCapacity="80" friendlyPos="true"/>
    <busStop id="ST2" lane="R3_1" startPos="0.00" endPos="33.00" personCapacity="80"/>
	
	<vType id="bus" vClass="bus" guiShape="bus" accel="1.8" decel="1.8" length="12" minGap="1" maxSpeed="50" laneChangeModel="SL2015" lcPushy="0"/>
	
	<flow id="flow_bus_N1" type="bus" begin="0" end="1800" vehsPerHour="3" from="-BM1" to="-CK4" departLane="free" departSpeed="10">
		<stop busStop="ST1" duration="40"/>
	</flow>
	<flow id="flow_bus_N2" type="bus" begin="0" end="1800" vehsPerHour="7" from="-BM1" to="-BM6" departLane="free" departSpeed="10">
		<stop busStop="ST1" duration="40"/>
	</flow>
	<flow id="flow_bus_N3" type="bus" begin="0" end="1800" vehsPerHour="7" from="BM1"  to="-CK4" departLane="free" departSpeed="10">
		<stop busStop="ST1" duration="40"/>
	</flow>
	<flow id="flow_bus_S1" type="bus" begin="0" end="1800" vehsPerHour="5" from="-BM1" to="-ZS3" departLane="free" departSpeed="10">
		<stop busStop="ST2" duration="40"/>
	</flow>
	<flow id="flow_bus_S2" type="bus" begin="0" end="1800" vehsPerHour="4" from="CK1"  to="-ZS3" departLane="free" departSpeed="10">
		<stop busStop="ST2" duration="40"/>
	</flow>
	<flow id="flow_bus_S3" type="bus" begin="0" end="1800" vehsPerHour="3" from="CK1"  to="-BM6" departLane="free" departSpeed="10">
		<stop busStop="ST2" duration="40"/>
	</flow>
	<flow id="flow_bus_S4" type="bus" begin="0" end="1800" vehsPerHour="5" from="CK1"  to="BM7"	departLane="free" departSpeed="10">
		<stop busStop="ST2" duration="40"/>
	</flow>
	
	<e2Detector id="e2_0" lane="-BM2_1" pos="60.00" length="20.00" freq="300.00" file="-BM.xml"/>
    <e2Detector id="e2_1" lane="-BM2_2" pos="60.00" length="20.00" freq="300.00" file="-BM.xml"/>
    <e2Detector id="e2_2" lane="BM6_2" 	pos="10.00" length="20.00" freq="300.00" file="BM.xml"/>
    <e2Detector id="e2_3" lane="BM6_1" 	pos="10.00" length="20.00" freq="300.00" file="BM.xml"/>
    <e2Detector id="e2_4" lane="-CK2_2" pos="20.00" length="20.00" freq="300.00" file="-CK.xml"/>
    <e2Detector id="e2_5" lane="-CK2_3" pos="20.00" length="20.00" freq="300.00" file="-CK.xml"/>
    <e2Detector id="e2_6" lane="-CK2_1" pos="20.00" length="20.00" freq="300.00" file="-CK.xml"/>
    <e2Detector id="e2_7" lane="CK3_2" 	pos="50.00" length="20.00" freq="300.00" file="CK.xml"/>
    <e2Detector id="e2_8" lane="CK3_1" 	pos="50.00" length="20.00" freq="300.00" file="CK.xml"/>
    <e2Detector id="e2_9" lane="CK3_3" 	pos="50.00" length="20.00" freq="300.00" file="CK.xml"/>
</additional>
