<?xml version="1.0" encoding="UTF-8"?>

<!-- generated on 2022-06-01 21:08:00 by Eclipse SUMO netedit Version 1.12.0
<configuration xmlns:xsi="http://www.w3.org/2001/XMLSchema-instance" xsi:noNamespaceSchemaLocation="http://sumo.dlr.de/xsd/netconvertConfiguration.xsd">

    <input>
        <sumo-net-file value="C:\Users\紀凱崴\Downloads\sumoooo\demonstration.net.xml"/>
    </input>

    <output>
        <output-file value="C:\Users\紀凱崴\Downloads\sumoooo\demonstration.net.xml"/>
    </output>

    <processing>
        <geometry.min-radius.fix.railways value="false"/>
        <geometry.max-grade.fix value="false"/>
        <offset.disable-normalization value="true"/>
        <lefthand value="false"/>
    </processing>

    <junctions>
        <no-internal-links value="false"/>
        <no-turnarounds value="true"/>
        <junctions.corner-detail value="5"/>
        <junctions.limit-turn-speed value="5.5"/>
        <rectangular-lane-cut value="false"/>
    </junctions>

    <pedestrian>
        <walkingareas value="false"/>
    </pedestrian>

    <report>
        <aggregate-warnings value="5"/>
    </report>

</configuration>
-->

<net version="1.9" junctionCornerDetail="5" limitTurnSpeed="5.50" xmlns:xsi="http://www.w3.org/2001/XMLSchema-instance" xsi:noNamespaceSchemaLocation="http://sumo.dlr.de/xsd/net_file.xsd">

    <location netOffset="-213682.69,-2545632.16" convBoundary="1.49,0.00,595.86,600.76" origBoundary="120.206972,22.994526,120.212741,23.000234" projParameter="+proj=utm +zone=51 +ellps=WGS84 +datum=WGS84 +units=m +no_defs"/>

    <type id="highway.bridleway" priority="1" numLanes="1" speed="2.78" allow="pedestrian" oneway="1" width="2.00"/>
    <type id="highway.bus_guideway" priority="1" numLanes="1" speed="27.78" allow="bus" oneway="1"/>
    <type id="highway.cycleway" priority="1" numLanes="1" speed="8.33" allow="bicycle" oneway="0" width="1.00"/>
    <type id="highway.footway" priority="1" numLanes="1" speed="2.78" allow="pedestrian" oneway="1" width="2.00"/>
    <type id="highway.ford" priority="1" numLanes="1" speed="2.78" allow="army" oneway="0"/>
    <type id="highway.living_street" priority="2" numLanes="1" speed="2.78" disallow="tram rail_urban rail rail_electric rail_fast ship" oneway="0"/>
    <type id="highway.motorway" priority="14" numLanes="2" speed="39.44" allow="private emergency authority army vip passenger hov taxi bus coach delivery truck trailer motorcycle evehicle custom1 custom2" oneway="1"/>
    <type id="highway.motorway_link" priority="9" numLanes="1" speed="22.22" allow="private emergency authority army vip passenger hov taxi bus coach delivery truck trailer motorcycle evehicle custom1 custom2" oneway="1"/>
    <type id="highway.path" priority="1" numLanes="1" speed="2.78" allow="pedestrian bicycle" oneway="0" width="2.00"/>
    <type id="highway.pedestrian" priority="1" numLanes="1" speed="2.78" allow="pedestrian" oneway="1" width="2.00"/>
    <type id="highway.primary" priority="12" numLanes="2" speed="27.78" disallow="tram rail_urban rail rail_electric rail_fast ship" oneway="0"/>
    <type id="highway.primary_link" priority="7" numLanes="1" speed="22.22" disallow="tram rail_urban rail rail_electric rail_fast ship" oneway="0"/>
    <type id="highway.raceway" priority="15" numLanes="2" speed="83.33" allow="vip" oneway="0"/>
    <type id="highway.residential" priority="3" numLanes="1" speed="13.89" disallow="tram rail_urban rail rail_electric rail_fast ship" oneway="0"/>
    <type id="highway.secondary" priority="11" numLanes="1" speed="27.78" disallow="tram rail_urban rail rail_electric rail_fast ship" oneway="0"/>
    <type id="highway.secondary_link" priority="6" numLanes="1" speed="22.22" disallow="tram rail_urban rail rail_electric rail_fast ship" oneway="0"/>
    <type id="highway.service" priority="1" numLanes="1" speed="5.56" allow="pedestrian delivery bicycle" oneway="0"/>
    <type id="highway.stairs" priority="1" numLanes="1" speed="1.39" allow="pedestrian" oneway="1" width="2.00"/>
    <type id="highway.step" priority="1" numLanes="1" speed="1.39" allow="pedestrian" oneway="1" width="2.00"/>
    <type id="highway.steps" priority="1" numLanes="1" speed="1.39" allow="pedestrian" oneway="1" width="2.00"/>
    <type id="highway.tertiary" priority="10" numLanes="1" speed="22.22" disallow="tram rail_urban rail rail_electric rail_fast ship" oneway="0"/>
    <type id="highway.tertiary_link" priority="5" numLanes="1" speed="22.22" disallow="tram rail_urban rail rail_electric rail_fast ship" oneway="0"/>
    <type id="highway.track" priority="1" numLanes="1" speed="5.56" allow="pedestrian motorcycle moped bicycle" oneway="0"/>
    <type id="highway.trunk" priority="13" numLanes="2" speed="27.78" disallow="pedestrian bicycle tram rail_urban rail rail_electric rail_fast ship" oneway="0"/>
    <type id="highway.trunk_link" priority="8" numLanes="1" speed="22.22" disallow="pedestrian bicycle tram rail_urban rail rail_electric rail_fast ship" oneway="0"/>
    <type id="highway.unclassified" priority="4" numLanes="1" speed="13.89" disallow="tram rail_urban rail rail_electric rail_fast ship" oneway="0"/>
    <type id="highway.unsurfaced" priority="1" numLanes="1" speed="8.33" disallow="tram rail_urban rail rail_electric rail_fast ship" oneway="0"/>
    <type id="railway.highspeed" priority="21" numLanes="1" speed="69.44" allow="rail_fast" oneway="1"/>
    <type id="railway.light_rail" priority="19" numLanes="1" speed="27.78" allow="rail_urban" oneway="1"/>
    <type id="railway.preserved" priority="16" numLanes="1" speed="27.78" allow="rail" oneway="1"/>
    <type id="railway.rail" priority="20" numLanes="1" speed="44.44" allow="rail" oneway="1"/>
    <type id="railway.subway" priority="18" numLanes="1" speed="27.78" allow="rail_urban" oneway="1"/>
    <type id="railway.tram" priority="17" numLanes="1" speed="13.89" allow="tram" oneway="1"/>

    <edge id=":1240618188_0" function="internal">
        <lane id=":1240618188_0_0" index="0" disallow="pedestrian tram rail_urban rail rail_electric rail_fast ship" speed="3.73" length="4.82" shape="597.53,600.42 596.96,601.80 596.24,602.37 595.35,602.13 594.29,601.08"/>
    </edge>
    <edge id=":1240618188_w0" function="walkingarea">
        <lane id=":1240618188_w0_0" index="0" allow="pedestrian" speed="1.00" length="15.50" width="2.00" shape="589.29,602.09 587.33,602.48 604.49,599.02 602.53,599.41"/>
    </edge>
    <edge id=":1268711606_0" function="internal">
        <lane id=":1268711606_0_0" index="0" disallow="pedestrian tram rail_urban rail rail_electric rail_fast ship" speed="27.78" length="0.30" width="3.50" shape="558.47,440.88 558.41,440.59"/>
        <lane id=":1268711606_0_1" index="1" allow="private emergency authority army vip passenger hov taxi bus coach delivery truck trailer motorcycle evehicle custom1 custom2" speed="27.78" length="0.30" shape="561.75,440.21 561.69,439.92"/>
    </edge>
    <edge id=":1268711606_2" function="internal">
        <lane id=":1268711606_2_0" index="0" disallow="pedestrian tram rail_urban rail rail_electric rail_fast ship" speed="27.78" length="0.30" width="3.40" shape="568.26,438.59 568.32,438.89"/>
        <lane id=":1268711606_2_1" index="1" allow="private emergency authority army vip passenger hov taxi bus coach delivery truck trailer motorcycle evehicle custom1 custom2" speed="27.78" length="0.30" width="3.40" shape="564.93,439.27 564.99,439.56"/>
    </edge>
    <edge id=":1268711606_w0" function="walkingarea">
        <lane id=":1268711606_w0_0" index="0" allow="pedestrian" speed="1.00" length="0.30" width="2.00" shape="556.69,440.93 554.73,441.33 554.79,441.62 556.75,441.23"/>
    </edge>
    <edge id=":1268711606_w1" function="walkingarea">
        <lane id=":1268711606_w1_0" index="0" allow="pedestrian" speed="1.00" length="0.30" width="2.00" shape="569.98,438.55 571.95,438.15 571.88,437.85 569.92,438.25"/>
    </edge>
    <edge id=":1649165602_0" function="internal">
        <lane id=":1649165602_0_0" index="0" disallow="pedestrian tram rail_urban rail rail_electric rail_fast ship" speed="3.71" length="4.89" width="3.50" shape="484.30,0.15 485.01,-1.18 485.81,-1.67 486.68,-1.34 487.63,-0.16"/>
    </edge>
    <edge id=":1649165602_w0" function="walkingarea">
        <lane id=":1649165602_w0_0" index="0" allow="pedestrian" speed="1.00" length="12.70" width="2.00" shape="491.37,-0.51 493.36,-0.69 478.72,0.67 480.71,0.48"/>
    </edge>
    <edge id=":1723635522_0" function="internal">
        <lane id=":1723635522_0_0" index="0" allow="moped bicycle" speed="22.22" length="0.10" width="2.00" shape="490.63,108.13 490.63,108.13"/>
        <lane id=":1723635522_0_1" index="1" disallow="pedestrian tram rail_urban rail rail_electric rail_fast ship" speed="22.22" length="0.10" shape="493.22,107.85 493.22,107.85"/>
    </edge>
    <edge id=":1723635522_2" function="internal">
        <lane id=":1723635522_2_0" index="0" allow="authority army vip hov motorcycle moped bicycle evehicle custom1 custom2" speed="22.22" length="0.10" width="2.00" shape="499.28,107.20 499.28,107.20"/>
        <lane id=":1723635522_2_1" index="1" disallow="pedestrian tram rail_urban rail rail_electric rail_fast ship" speed="22.22" length="0.10" width="3.50" shape="496.55,107.49 496.55,107.49"/>
    </edge>
    <edge id=":1723635522_w0" function="walkingarea">
        <lane id=":1723635522_w0_0" index="0" allow="pedestrian" speed="1.00" length="0.10" width="2.00" shape="489.64,108.24 487.65,108.45 487.65,108.45 489.64,108.24"/>
    </edge>
    <edge id=":1723635522_w1" function="walkingarea">
        <lane id=":1723635522_w1_0" index="0" allow="pedestrian" speed="1.00" length="0.10" width="2.00" shape="500.28,107.09 502.27,106.88 502.27,106.88 500.28,107.09"/>
    </edge>
    <edge id=":1723707795_0" function="internal">
        <lane id=":1723707795_0_0" index="0" allow="authority army vip hov motorcycle moped bicycle evehicle custom1 custom2" speed="22.22" length="0.21" width="2.00" shape="256.70,356.99 256.55,357.02"/>
        <lane id=":1723707795_0_1" index="1" disallow="pedestrian tram rail_urban rail rail_electric rail_fast ship" speed="22.22" length="0.21" shape="256.25,354.43 256.05,354.47"/>
        <lane id=":1723707795_0_2" index="2" allow="private emergency authority army vip passenger hov taxi bus coach delivery truck trailer motorcycle evehicle custom1 custom2" speed="22.22" length="0.21" shape="255.69,351.28 255.43,351.33"/>
    </edge>
    <edge id=":1723707795_3" function="internal">
        <lane id=":1723707795_3_0" index="0" allow="authority army vip hov motorcycle moped bicycle evehicle custom1 custom2" speed="22.22" length="0.39" width="2.00" shape="253.70,342.50 254.13,342.42"/>
        <lane id=":1723707795_3_1" index="1" disallow="pedestrian tram rail_urban rail rail_electric rail_fast ship" speed="22.22" length="0.39" shape="254.20,345.05 254.58,344.98"/>
        <lane id=":1723707795_3_2" index="2" disallow="pedestrian tram rail_urban rail rail_electric rail_fast ship" speed="22.22" length="0.39" shape="254.82,348.19 255.14,348.13"/>
    </edge>
    <edge id=":1723707795_w0" function="walkingarea">
        <lane id=":1723707795_w0_0" index="0" allow="pedestrian" speed="1.00" length="0.11" width="2.00" shape="256.74,358.00 257.13,359.96 257.22,359.95 256.87,357.98"/>
    </edge>
    <edge id=":1723707795_w1" function="walkingarea">
        <lane id=":1723707795_w1_0" index="0" allow="pedestrian" speed="1.00" length="0.48" width="2.00" shape="253.96,341.43 253.61,339.46 253.12,339.55 253.51,341.52"/>
    </edge>
    <edge id=":5363872669_0" function="internal">
        <lane id=":5363872669_0_0" index="0" allow="authority army vip hov motorcycle moped bicycle evehicle custom1 custom2" speed="22.22" length="0.74" width="2.00" shape="335.67,343.02 335.33,343.13 335.10,343.20 334.86,343.26 334.51,343.32"/>
        <lane id=":5363872669_0_1" index="1" disallow="pedestrian tram rail_urban rail rail_electric rail_fast ship" speed="22.22" length="0.74" shape="334.81,340.56 334.59,340.64 334.44,340.68 334.29,340.72 334.06,340.76"/>
        <lane id=":5363872669_0_2" index="2" allow="private emergency authority army vip passenger hov taxi bus coach delivery truck trailer motorcycle evehicle custom1 custom2" speed="22.22" length="0.74" shape="333.76,337.54 333.68,337.57 333.63,337.58 333.58,337.59 333.51,337.61"/>
    </edge>
    <edge id=":5363872669_w0" function="walkingarea">
        <lane id=":5363872669_w0_0" index="0" allow="pedestrian" speed="1.00" length="1.52" width="2.00" shape="334.68,344.30 335.03,346.27 336.66,345.85 336.00,343.96 335.72,344.06 335.52,344.12 335.35,344.17 335.18,344.21 334.97,344.25"/>
    </edge>
    <edge id=":864831539_w0" function="walkingarea">
        <lane id=":864831539_w0_0" index="0" allow="pedestrian" speed="1.00" length="18.80" width="2.00" shape="-0.13,391.32 -0.51,389.35 3.49,409.77 3.11,407.80"/>
    </edge>
    <edge id=":949661329_0" function="internal">
        <lane id=":949661329_0_0" index="0" allow="authority army vip hov motorcycle moped bicycle evehicle custom1 custom2" speed="27.78" length="0.39" width="2.00" shape="285.52,137.15 285.35,137.03"/>
        <lane id=":949661329_0_1" index="1" disallow="pedestrian tram rail_urban rail rail_electric rail_fast ship" speed="27.78" length="0.39" shape="287.13,135.11 286.83,134.89"/>
        <lane id=":949661329_0_2" index="2" allow="private emergency authority army vip passenger hov taxi bus coach delivery truck trailer motorcycle evehicle custom1 custom2" speed="27.78" length="0.39" shape="289.12,132.60 288.64,132.25"/>
    </edge>
    <edge id=":949661329_3" function="internal">
        <lane id=":949661329_3_0" index="0" allow="authority army vip hov motorcycle moped bicycle evehicle custom1 custom2" speed="27.78" length="1.02" width="2.00" shape="293.73,124.83 294.70,125.55"/>
        <lane id=":949661329_3_1" index="1" disallow="pedestrian tram rail_urban rail rail_electric rail_fast ship" speed="27.78" length="1.02" shape="292.26,126.98 293.09,127.58"/>
        <lane id=":949661329_3_2" index="2" allow="private emergency authority army vip passenger hov taxi bus coach delivery truck trailer motorcycle evehicle custom1 custom2" speed="27.78" length="1.02" shape="290.45,129.61 291.10,130.09"/>
    </edge>
    <edge id=":949661329_w0" function="walkingarea">
        <lane id=":949661329_w0_0" index="0" allow="pedestrian" speed="1.00" length="0.10" width="2.00" shape="284.79,137.85 283.66,139.50 283.66,139.50 284.90,137.93"/>
    </edge>
    <edge id=":949661329_w1" function="walkingarea">
        <lane id=":949661329_w1_0" index="0" allow="pedestrian" speed="1.00" length="1.34" width="2.00" shape="295.33,124.76 296.57,123.19 295.43,122.36 294.30,124.01"/>
    </edge>
    <edge id=":J0_0" function="internal">
        <lane id=":J0_0_0" index="0" allow="authority army vip hov motorcycle moped bicycle evehicle custom1 custom2" speed="22.22" length="0.94" width="2.00" shape="330.95,328.90 331.09,328.87 331.19,328.85 331.28,328.82 331.42,328.78"/>
        <lane id=":J0_0_1" index="1" disallow="pedestrian tram rail_urban rail rail_electric rail_fast ship" speed="22.22" length="0.94" shape="331.40,331.46 331.66,331.41 331.84,331.37 332.02,331.32 332.27,331.23"/>
        <lane id=":J0_0_2" index="2" allow="private emergency authority army vip passenger hov taxi bus coach delivery truck trailer motorcycle evehicle custom1 custom2" speed="22.22" length="0.94" shape="331.96,334.61 332.37,334.53 332.65,334.47 332.93,334.39 333.33,334.25"/>
    </edge>
    <edge id=":J0_w0" function="walkingarea">
        <lane id=":J0_w0_0" index="0" allow="pedestrian" speed="1.00" length="0.16" width="2.00" shape="331.09,327.83 330.43,325.94 330.43,325.94 330.78,327.91 330.84,327.90 330.89,327.89 330.94,327.88 330.98,327.87 331.02,327.85"/>
    </edge>
    <edge id=":J1_0" function="internal">
        <lane id=":J1_0_0" index="0" allow="authority army vip hov motorcycle moped bicycle evehicle custom1 custom2" speed="13.69" length="25.35" width="2.00" shape="488.33,299.05 483.84,296.54 478.29,295.57 471.68,296.13 464.02,298.23"/>
        <lane id=":J1_0_1" index="1" disallow="pedestrian tram rail_urban rail rail_electric rail_fast ship" speed="14.01" length="26.57" shape="488.33,299.05 482.90,295.67 476.90,293.99 470.32,294.03 463.16,295.77"/>
    </edge>
    <edge id=":J1_2" function="internal">
        <lane id=":J1_2_0" index="0" allow="authority army vip hov motorcycle moped bicycle evehicle custom1 custom2" speed="27.78" length="33.23" width="2.00" shape="488.33,299.05 463.02,277.69"/>
        <lane id=":J1_2_1" index="1" disallow="pedestrian tram rail_urban rail rail_electric rail_fast ship" speed="27.78" length="33.23" shape="488.33,299.05 481.40,292.68 476.55,287.27 471.67,281.90 464.63,275.65"/>
    </edge>
    <edge id=":J1_4" function="internal">
        <lane id=":J1_4_0" index="0" allow="moped" speed="14.50" length="37.00" width="2.00" shape="488.35,299.06 483.10,295.61 463.95,290.48 461.38,285.37 462.35,283.50 465.31,282.68"/>
        <lane id=":J1_4_1" index="1" allow="moped" speed="13.82" length="30.40" shape="488.35,299.06 483.10,295.61 478.47,293.09 466.27,289.32 464.22,285.66 466.03,285.16"/>
    </edge>
    <edge id=":J1_6" function="internal">
        <lane id=":J1_6_0" index="0" allow="private emergency authority army vip passenger hov taxi bus coach delivery truck trailer motorcycle evehicle custom1 custom2" speed="27.78" length="33.36" shape="490.47,296.47 466.62,273.15"/>
    </edge>
    <edge id=":J1_7" function="internal">
        <lane id=":J1_7_0" index="0" allow="private emergency authority army vip passenger hov taxi bus coach delivery truck trailer motorcycle evehicle custom1 custom2" speed="8.71" length="4.59" shape="492.51,294.00 489.41,290.62"/>
    </edge>
    <edge id=":J1_28" function="internal">
        <lane id=":J1_28_0" index="0" allow="moped" speed="14.50" length="30.72" width="2.00" shape="465.31,282.68 494.91,274.49"/>
    </edge>
    <edge id=":J1_29" function="internal">
        <lane id=":J1_29_0" index="0" allow="moped" speed="13.82" length="30.96" shape="466.03,285.16 495.87,276.91"/>
    </edge>
    <edge id=":J1_30" function="internal">
        <lane id=":J1_30_0" index="0" allow="private emergency authority army vip passenger hov taxi bus coach delivery truck trailer motorcycle evehicle custom1 custom2" speed="8.71" length="18.92" shape="489.41,290.62 487.88,288.95 486.90,284.42 489.57,280.40 495.87,276.91"/>
    </edge>
    <edge id=":J1_8" function="internal">
        <lane id=":J1_8_0" index="0" allow="authority army vip hov motorcycle moped bicycle evehicle custom1 custom2" speed="22.22" length="37.40" width="2.00" shape="498.13,282.58 464.02,298.23"/>
        <lane id=":J1_8_1" index="1" disallow="pedestrian tram rail_urban rail rail_electric rail_fast ship" speed="22.22" length="37.40" shape="497.11,280.02 463.16,295.77"/>
        <lane id=":J1_8_2" index="2" allow="private emergency authority army vip passenger hov taxi bus coach delivery truck trailer motorcycle evehicle custom1 custom2" speed="22.22" length="37.40" shape="497.11,280.02 462.11,292.75"/>
    </edge>
    <edge id=":J1_11" function="internal">
        <lane id=":J1_11_0" index="0" disallow="pedestrian tram rail_urban rail rail_electric rail_fast ship" speed="15.67" length="34.41" shape="497.11,280.02 488.35,282.43 480.02,282.50 472.11,280.24 464.63,275.65"/>
        <lane id=":J1_11_1" index="1" allow="private emergency authority army vip passenger hov taxi bus coach delivery truck trailer motorcycle evehicle custom1 custom2" speed="15.30" length="32.77" shape="497.11,280.02 489.76,281.76 482.23,281.19 474.52,278.32 466.62,273.15"/>
    </edge>
    <edge id=":J1_13" function="internal">
        <lane id=":J1_13_0" index="0" allow="moped bicycle" speed="13.36" length="25.14" width="2.00" shape="472.21,266.09 479.12,270.97 485.21,273.99 490.47,275.17 494.91,274.49"/>
    </edge>
    <edge id=":J1_14" function="internal">
        <lane id=":J1_14_0" index="0" allow="authority army vip hov motorcycle moped bicycle evehicle custom1 custom2" speed="27.78" length="33.49" width="3.40" shape="472.21,266.09 496.78,288.85"/>
    </edge>
    <edge id=":J1_15" function="internal">
        <lane id=":J1_15_0" index="0" disallow="pedestrian tram rail_urban rail rail_electric rail_fast ship" speed="14.11" length="27.85" shape="470.59,268.13 478.11,273.38 484.83,276.59 490.75,277.77 495.87,276.91"/>
    </edge>
    <edge id=":J1_16" function="internal">
        <lane id=":J1_16_0" index="0" disallow="pedestrian tram rail_urban rail rail_electric rail_fast ship" speed="27.78" length="33.35" width="3.40" shape="470.59,268.13 496.78,288.85"/>
        <lane id=":J1_16_1" index="1" allow="private emergency authority army vip passenger hov taxi bus coach delivery truck trailer motorcycle evehicle custom1 custom2" speed="27.78" length="33.35" width="3.40" shape="468.61,270.64 494.61,291.46"/>
    </edge>
    <edge id=":J1_18" function="internal">
        <lane id=":J1_18_0" index="0" allow="private emergency authority army vip passenger hov taxi bus coach delivery truck trailer motorcycle evehicle custom1 custom2" speed="9.55" length="5.45" shape="468.61,270.64 471.99,274.91"/>
    </edge>
    <edge id=":J1_31" function="internal">
        <lane id=":J1_31_0" index="0" allow="private emergency authority army vip passenger hov taxi bus coach delivery truck trailer motorcycle evehicle custom1 custom2" speed="9.55" length="24.14" shape="471.99,274.91 473.53,276.85 473.66,283.09 469.63,288.63 462.11,292.75"/>
    </edge>
    <edge id=":J1_19" function="internal">
        <lane id=":J1_19_0" index="0" allow="authority army vip hov motorcycle moped bicycle evehicle custom1 custom2" speed="5.69" length="10.11" width="2.00" shape="459.14,284.25 462.55,282.74 464.33,281.14 464.49,279.46 463.02,277.69"/>
    </edge>
    <edge id=":J1_20" function="internal">
        <lane id=":J1_20_0" index="0" allow="moped bicycle" speed="22.22" length="37.08" width="2.00" shape="459.14,284.25 494.91,274.49"/>
    </edge>
    <edge id=":J1_21" function="internal">
        <lane id=":J1_21_0" index="0" allow="moped" speed="19.73" length="34.00" width="3.40" shape="459.14,284.25 464.19,282.15 465.05,280.87 467.93,274.02 472.68,268.87 474.54,268.25 483.00,274.62"/>
    </edge>
    <edge id=":J1_22" function="internal">
        <lane id=":J1_22_0" index="0" disallow="pedestrian tram rail_urban rail rail_electric rail_fast ship" speed="7.25" length="4.22" shape="460.00,286.71 463.82,284.93"/>
        <lane id=":J1_22_1" index="1" allow="private emergency authority army vip passenger hov taxi bus coach delivery truck trailer motorcycle evehicle custom1 custom2" speed="8.02" length="4.39" shape="460.00,286.71 463.99,284.89"/>
    </edge>
    <edge id=":J1_24" function="internal">
        <lane id=":J1_24_0" index="0" disallow="pedestrian tram rail_urban rail rail_electric rail_fast ship" speed="22.22" length="37.19" shape="460.00,286.71 495.87,276.91"/>
    </edge>
    <edge id=":J1_25" function="internal">
        <lane id=":J1_25_0" index="0" allow="moped" speed="19.21" length="31.00" width="3.40" shape="460.00,286.71 466.77,283.73 468.64,281.42 470.64,276.01 474.42,271.19 481.28,276.60"/>
        <lane id=":J1_25_1" index="1" allow="private emergency authority army vip passenger hov taxi bus coach delivery truck trailer motorcycle evehicle custom1 custom2" speed="16.45" length="10.37" width="3.40" shape="461.05,289.73 471.01,286.85"/>
        <lane id=":J1_25_2" index="2" allow="private emergency authority army vip passenger hov taxi bus coach delivery truck trailer motorcycle evehicle custom1 custom2" speed="16.01" length="8.14" width="3.40" shape="461.05,289.73 468.92,287.62"/>
    </edge>
    <edge id=":J1_32" function="internal">
        <lane id=":J1_32_0" index="0" allow="moped" speed="19.73" length="19.80" width="3.40" shape="483.00,274.62 483.19,274.77 496.78,288.84"/>
    </edge>
    <edge id=":J1_33" function="internal">
        <lane id=":J1_33_0" index="0" disallow="pedestrian tram rail_urban rail rail_electric rail_fast ship" speed="7.25" length="12.17" shape="463.82,284.93 465.13,284.33 467.61,281.69 467.44,278.80 464.63,275.65"/>
    </edge>
    <edge id=":J1_34" function="internal">
        <lane id=":J1_34_0" index="0" allow="private emergency authority army vip passenger hov taxi bus coach delivery truck trailer motorcycle evehicle custom1 custom2" speed="8.02" length="16.02" shape="463.99,284.89 466.59,283.70 469.89,280.44 469.90,276.92 466.62,273.15"/>
    </edge>
    <edge id=":J1_35" function="internal">
        <lane id=":J1_35_0" index="0" allow="moped" speed="19.21" length="19.75" width="3.40" shape="481.28,276.60 496.78,288.84"/>
    </edge>
    <edge id=":J1_36" function="internal">
        <lane id=":J1_36_0" index="0" allow="private emergency authority army vip passenger hov taxi bus coach delivery truck trailer motorcycle evehicle custom1 custom2" speed="16.45" length="26.69" width="3.40" shape="471.01,286.85 472.99,286.28 482.92,284.99 490.85,285.84 496.78,288.85"/>
    </edge>
    <edge id=":J1_37" function="internal">
        <lane id=":J1_37_0" index="0" allow="private emergency authority army vip passenger hov taxi bus coach delivery truck trailer motorcycle evehicle custom1 custom2" speed="16.01" length="26.92" width="3.40" shape="468.92,287.62 471.45,286.94 480.50,286.30 488.22,287.81 494.61,291.46"/>
    </edge>
    <edge id=":J1_w0" function="walkingarea">
        <lane id=":J1_w0_0" index="0" allow="pedestrian" speed="1.00" length="22.25" width="2.00" shape="494.54,273.56 493.80,271.71 474.07,263.74 472.83,265.31 477.38,268.66 481.55,271.22 485.36,272.99 488.79,273.97 491.85,274.16"/>
    </edge>
    <edge id=":J10_0" function="internal">
        <lane id=":J10_0_0" index="0" allow="authority army vip hov moped bicycle evehicle custom1 custom2" speed="8.79" length="6.58" width="2.00" shape="437.97,310.63 436.48,309.70 433.65,309.66 431.69,310.05"/>
        <lane id=":J10_0_1" index="1" allow="authority army vip hov moped bicycle evehicle custom1 custom2" speed="9.16" length="7.84" shape="437.97,310.63 435.91,308.69 432.75,307.90 430.99,308.05"/>
    </edge>
    <edge id=":J10_2" function="internal">
        <lane id=":J10_2_0" index="0" allow="authority army vip hov moped bicycle evehicle custom1 custom2" speed="13.89" length="22.78" shape="437.97,310.63 434.58,305.18 432.03,300.82 430.10,296.23 428.58,290.07"/>
    </edge>
    <edge id=":J10_10" function="internal">
        <lane id=":J10_10_0" index="0" allow="authority army vip hov moped bicycle evehicle custom1 custom2" speed="8.79" length="8.02" width="2.00" shape="431.69,310.05 429.48,310.49 423.97,312.21"/>
    </edge>
    <edge id=":J10_11" function="internal">
        <lane id=":J10_11_0" index="0" allow="authority army vip hov moped bicycle evehicle custom1 custom2" speed="9.16" length="8.09" shape="430.99,308.05 428.48,308.26 423.11,309.75"/>
    </edge>
    <edge id=":J10_3" function="internal">
        <lane id=":J10_3_0" index="0" allow="authority army vip hov motorcycle moped bicycle evehicle custom1 custom2" speed="22.22" length="16.43" width="2.00" shape="439.48,306.79 423.97,312.21"/>
        <lane id=":J10_3_1" index="1" disallow="pedestrian tram rail_urban rail rail_electric rail_fast ship" speed="22.22" length="16.43" shape="438.62,304.34 423.11,309.75"/>
        <lane id=":J10_3_2" index="2" allow="private emergency authority army vip passenger hov taxi bus coach delivery truck trailer motorcycle evehicle custom1 custom2" speed="22.22" length="16.43" shape="437.57,301.32 422.06,306.73"/>
    </edge>
    <edge id=":J10_6" function="internal">
        <lane id=":J10_6_0" index="0" allow="authority army vip hov moped bicycle evehicle custom1 custom2" speed="8.15" length="13.41" shape="419.09,298.22 423.56,296.36 426.63,294.38 428.30,292.29 428.58,290.07"/>
    </edge>
    <edge id=":J10_7" function="internal">
        <lane id=":J10_7_0" index="0" allow="authority army vip hov motorcycle moped bicycle evehicle custom1 custom2" speed="22.22" length="16.43" width="2.00" shape="419.09,298.22 434.60,292.82"/>
        <lane id=":J10_7_1" index="1" disallow="pedestrian tram rail_urban rail rail_electric rail_fast ship" speed="22.22" length="16.43" shape="419.94,300.68 435.46,295.28"/>
        <lane id=":J10_7_2" index="2" allow="private emergency authority army vip passenger hov taxi bus coach delivery truck trailer motorcycle evehicle custom1 custom2" speed="22.22" length="16.43" shape="421.00,303.70 436.51,298.30"/>
    </edge>
    <edge id=":J10_c0" function="crossing" crossingEdges="-CK2 CK3">
        <lane id=":J10_c0_0" index="0" allow="pedestrian" speed="1.00" length="16.81" width="8.00" shape="428.07,311.83 422.54,295.96"/>
    </edge>
    <edge id=":J10_w0" function="walkingarea">
        <lane id=":J10_w0_0" index="0" allow="pedestrian" speed="1.00" length="6.83" width="8.00" shape="424.30,313.15 424.96,315.04 432.31,314.03 436.60,311.45 435.90,310.90 434.66,310.69 432.88,310.81 430.56,311.25 427.70,312.04"/>
    </edge>
    <edge id=":J10_w1" function="walkingarea">
        <lane id=":J10_w1_0" index="0" allow="pedestrian" speed="1.00" length="5.66" width="8.00" shape="427.13,291.03 422.22,291.95 418.10,295.39 418.76,297.28 421.48,296.22 423.66,295.12 425.30,293.99 426.41,292.82 426.97,291.61"/>
    </edge>
    <edge id=":J12_0" function="internal">
        <lane id=":J12_0_0" index="0" allow="authority army vip hov motorcycle moped bicycle evehicle custom1 custom2" speed="27.78" length="18.55" width="2.00" shape="439.30,258.91 424.76,247.39"/>
        <lane id=":J12_0_1" index="1" disallow="pedestrian tram rail_urban rail rail_electric rail_fast ship" speed="27.78" length="18.55" shape="440.91,256.87 426.37,245.35"/>