<?xml version="1.0" encoding="UTF-8"?>

<!-- generated on 2022-05-29 14:08:59 by Eclipse SUMO netedit Version 1.12.0
<configuration xmlns:xsi="http://www.w3.org/2001/XMLSchema-instance" xsi:noNamespaceSchemaLocation="http://sumo.dlr.de/xsd/netconvertConfiguration.xsd">

    <input>
        <sumo-net-file value="D:\sumooo\demonstration.net.xml"/>
    </input>

    <output>
        <output-file value="D:\sumooo\demonstration.net.xml"/>
    </output>

    <processing>
        <geometry.min-radius.fix.railways value="false"/>
        <geometry.max-grade.fix value="false"/>
        <offset.disable-normalization value="true"/>
        <lefthand value="false"/>
    </processing>

    <junctions>
        <no-internal-links value="false"/>
        <no-turnarounds value="true"/>
        <junctions.corner-detail value="5"/>
        <junctions.limit-turn-speed value="5.5"/>
        <rectangular-lane-cut value="false"/>
    </junctions>

    <pedestrian>
        <walkingareas value="false"/>
    </pedestrian>

    <report>
        <aggregate-warnings value="5"/>
    </report>

</configuration>
-->

<net version="1.9" junctionCornerDetail="5" limitTurnSpeed="5.50" xmlns:xsi="http://www.w3.org/2001/XMLSchema-instance" xsi:noNamespaceSchemaLocation="http://sumo.dlr.de/xsd/net_file.xsd">

    <location netOffset="-213682.69,-2545632.16" convBoundary="1.49,0.00,595.86,600.76" origBoundary="120.206972,22.994526,120.212741,23.000234" projParameter="+proj=utm +zone=51 +ellps=WGS84 +datum=WGS84 +units=m +no_defs"/>

    <type id="highway.bridleway" priority="1" numLanes="1" speed="2.78" allow="pedestrian" oneway="1" width="2.00"/>
    <type id="highway.bus_guideway" priority="1" numLanes="1" speed="27.78" allow="bus" oneway="1"/>
    <type id="highway.cycleway" priority="1" numLanes="1" speed="8.33" allow="bicycle" oneway="0" width="1.00"/>
    <type id="highway.footway" priority="1" numLanes="1" speed="2.78" allow="pedestrian" oneway="1" width="2.00"/>
    <type id="highway.ford" priority="1" numLanes="1" speed="2.78" allow="army" oneway="0"/>
    <type id="highway.living_street" priority="2" numLanes="1" speed="2.78" disallow="tram rail_urban rail rail_electric rail_fast ship" oneway="0"/>
    <type id="highway.motorway" priority="14" numLanes="2" speed="39.44" allow="private emergency authority army vip passenger hov taxi bus coach delivery truck trailer motorcycle evehicle custom1 custom2" oneway="1"/>
    <type id="highway.motorway_link" priority="9" numLanes="1" speed="22.22" allow="private emergency authority army vip passenger hov taxi bus coach delivery truck trailer motorcycle evehicle custom1 custom2" oneway="1"/>
    <type id="highway.path" priority="1" numLanes="1" speed="2.78" allow="pedestrian bicycle" oneway="0" width="2.00"/>
    <type id="highway.pedestrian" priority="1" numLanes="1" speed="2.78" allow="pedestrian" oneway="1" width="2.00"/>
    <type id="highway.primary" priority="12" numLanes="2" speed="27.78" disallow="tram rail_urban rail rail_electric rail_fast ship" oneway="0"/>
    <type id="highway.primary_link" priority="7" numLanes="1" speed="22.22" disallow="tram rail_urban rail rail_electric rail_fast ship" oneway="0"/>
    <type id="highway.raceway" priority="15" numLanes="2" speed="83.33" allow="vip" oneway="0"/>
    <type id="highway.residential" priority="3" numLanes="1" speed="13.89" disallow="tram rail_urban rail rail_electric rail_fast ship" oneway="0"/>
    <type id="highway.secondary" priority="11" numLanes="1" speed="27.78" disallow="tram rail_urban rail rail_electric rail_fast ship" oneway="0"/>
    <type id="highway.secondary_link" priority="6" numLanes="1" speed="22.22" disallow="tram rail_urban rail rail_electric rail_fast ship" oneway="0"/>
    <type id="highway.service" priority="1" numLanes="1" speed="5.56" allow="pedestrian delivery bicycle" oneway="0"/>
    <type id="highway.stairs" priority="1" numLanes="1" speed="1.39" allow="pedestrian" oneway="1" width="2.00"/>
    <type id="highway.step" priority="1" numLanes="1" speed="1.39" allow="pedestrian" oneway="1" width="2.00"/>
    <type id="highway.steps" priority="1" numLanes="1" speed="1.39" allow="pedestrian" oneway="1" width="2.00"/>
    <type id="highway.tertiary" priority="10" numLanes="1" speed="22.22" disallow="tram rail_urban rail rail_electric rail_fast ship" oneway="0"/>
    <type id="highway.tertiary_link" priority="5" numLanes="1" speed="22.22" disallow="tram rail_urban rail rail_electric rail_fast ship" oneway="0"/>
    <type id="highway.track" priority="1" numLanes="1" speed="5.56" allow="pedestrian motorcycle moped bicycle" oneway="0"/>
    <type id="highway.trunk" priority="13" numLanes="2" speed="27.78" disallow="pedestrian bicycle tram rail_urban rail rail_electric rail_fast ship" oneway="0"/>
    <type id="highway.trunk_link" priority="8" numLanes="1" speed="22.22" disallow="pedestrian bicycle tram rail_urban rail rail_electric rail_fast ship" oneway="0"/>
    <type id="highway.unclassified" priority="4" numLanes="1" speed="13.89" disallow="tram rail_urban rail rail_electric rail_fast ship" oneway="0"/>
    <type id="highway.unsurfaced" priority="1" numLanes="1" speed="8.33" disallow="tram rail_urban rail rail_electric rail_fast ship" oneway="0"/>
    <type id="railway.highspeed" priority="21" numLanes="1" speed="69.44" allow="rail_fast" oneway="1"/>
    <type id="railway.light_rail" priority="19" numLanes="1" speed="27.78" allow="rail_urban" oneway="1"/>
    <type id="railway.preserved" priority="16" numLanes="1" speed="27.78" allow="rail" oneway="1"/>
    <type id="railway.rail" priority="20" numLanes="1" speed="44.44" allow="rail" oneway="1"/>
    <type id="railway.subway" priority="18" numLanes="1" speed="27.78" allow="rail_urban" oneway="1"/>
    <type id="railway.tram" priority="17" numLanes="1" speed="13.89" allow="tram" oneway="1"/>

    <edge id=":1240618188_0" function="internal">
        <lane id=":1240618188_0_0" index="0" disallow="pedestrian tram rail_urban rail rail_electric rail_fast ship" speed="3.73" length="4.82" shape="597.53,600.42 596.96,601.80 596.24,602.37 595.35,602.13 594.29,601.08"/>
    </edge>
    <edge id=":1240618188_w0" function="walkingarea">
        <lane id=":1240618188_w0_0" index="0" allow="pedestrian" speed="1.00" length="15.50" width="2.00" shape="589.29,602.09 587.33,602.48 604.49,599.02 602.53,599.41"/>
    </edge>
    <edge id=":1268711606_0" function="internal">
        <lane id=":1268711606_0_0" index="0" disallow="pedestrian tram rail_urban rail rail_electric rail_fast ship" speed="27.78" length="0.30" width="3.50" shape="558.47,440.88 558.41,440.59"/>
        <lane id=":1268711606_0_1" index="1" allow="private emergency authority army vip passenger hov taxi bus coach delivery truck trailer motorcycle evehicle custom1 custom2" speed="27.78" length="0.30" shape="561.75,440.21 561.69,439.92"/>
    </edge>
    <edge id=":1268711606_2" function="internal">
        <lane id=":1268711606_2_0" index="0" disallow="pedestrian tram rail_urban rail rail_electric rail_fast ship" speed="27.78" length="0.30" width="3.40" shape="568.26,438.59 568.32,438.89"/>
        <lane id=":1268711606_2_1" index="1" allow="private emergency authority army vip passenger hov taxi bus coach delivery truck trailer motorcycle evehicle custom1 custom2" speed="27.78" length="0.30" width="3.40" shape="564.93,439.27 564.99,439.56"/>
    </edge>
    <edge id=":1268711606_w0" function="walkingarea">
        <lane id=":1268711606_w0_0" index="0" allow="pedestrian" speed="1.00" length="0.30" width="2.00" shape="556.69,440.93 554.73,441.33 554.79,441.62 556.75,441.23"/>
    </edge>
    <edge id=":1268711606_w1" function="walkingarea">
        <lane id=":1268711606_w1_0" index="0" allow="pedestrian" speed="1.00" length="0.30" width="2.00" shape="569.98,438.55 571.95,438.15 571.88,437.85 569.92,438.25"/>
    </edge>
    <edge id=":1649165602_0" function="internal">
        <lane id=":1649165602_0_0" index="0" disallow="pedestrian tram rail_urban rail rail_electric rail_fast ship" speed="3.71" length="4.89" width="3.50" shape="484.30,0.15 485.01,-1.18 485.81,-1.67 486.68,-1.34 487.63,-0.16"/>
    </edge>
    <edge id=":1649165602_w0" function="walkingarea">
        <lane id=":1649165602_w0_0" index="0" allow="pedestrian" speed="1.00" length="12.70" width="2.00" shape="491.37,-0.51 493.36,-0.69 478.72,0.67 480.71,0.48"/>
    </edge>
    <edge id=":1723635522_0" function="internal">
        <lane id=":1723635522_0_0" index="0" allow="moped bicycle" speed="22.22" length="0.10" width="2.00" shape="490.63,108.13 490.63,108.13"/>
        <lane id=":1723635522_0_1" index="1" disallow="pedestrian tram rail_urban rail rail_electric rail_fast ship" speed="22.22" length="0.10" shape="493.22,107.85 493.22,107.85"/>
    </edge>
    <edge id=":1723635522_2" function="internal">
        <lane id=":1723635522_2_0" index="0" allow="authority army vip hov motorcycle moped bicycle evehicle custom1 custom2" speed="22.22" length="0.10" width="2.00" shape="499.28,107.20 499.28,107.20"/>
        <lane id=":1723635522_2_1" index="1" disallow="pedestrian tram rail_urban rail rail_electric rail_fast ship" speed="22.22" length="0.10" width="3.50" shape="496.55,107.49 496.55,107.49"/>
    </edge>
    <edge id=":1723635522_w0" function="walkingarea">
        <lane id=":1723635522_w0_0" index="0" allow="pedestrian" speed="1.00" length="0.10" width="2.00" shape="489.64,108.24 487.65,108.45 487.65,108.45 489.64,108.24"/>
    </edge>
    <edge id=":1723635522_w1" function="walkingarea">
        <lane id=":1723635522_w1_0" index="0" allow="pedestrian" speed="1.00" length="0.10" width="2.00" shape="500.28,107.09 502.27,106.88 502.27,106.88 500.28,107.09"/>
    </edge>
    <edge id=":1723707795_0" function="internal">
        <lane id=":1723707795_0_0" index="0" allow="authority army vip hov motorcycle moped bicycle evehicle custom1 custom2" speed="22.22" length="0.21" width="2.00" shape="256.70,356.99 256.55,357.02"/>
        <lane id=":1723707795_0_1" index="1" disallow="pedestrian tram rail_urban rail rail_electric rail_fast ship" speed="22.22" length="0.21" shape="256.25,354.43 256.05,354.47"/>
        <lane id=":1723707795_0_2" index="2" allow="private emergency authority army vip passenger hov taxi bus coach delivery truck trailer motorcycle evehicle custom1 custom2" speed="22.22" length="0.21" shape="255.69,351.28 255.43,351.33"/>
    </edge>
    <edge id=":1723707795_3" function="internal">
        <lane id=":1723707795_3_0" index="0" allow="authority army vip hov motorcycle moped bicycle evehicle custom1 custom2" speed="22.22" length="0.39" width="2.00" shape="253.70,342.50 254.13,342.42"/>
        <lane id=":1723707795_3_1" index="1" disallow="pedestrian tram rail_urban rail rail_electric rail_fast ship" speed="22.22" length="0.39" shape="254.20,345.05 254.58,344.98"/>
        <lane id=":1723707795_3_2" index="2" disallow="pedestrian tram rail_urban rail rail_electric rail_fast ship" speed="22.22" length="0.39" shape="254.82,348.19 255.14,348.13"/>
    </edge>
    <edge id=":1723707795_w0" function="walkingarea">
        <lane id=":1723707795_w0_0" index="0" allow="pedestrian" speed="1.00" length="0.11" width="2.00" shape="256.74,358.00 257.13,359.96 257.22,359.95 256.87,357.98"/>
    </edge>
    <edge id=":1723707795_w1" function="walkingarea">
        <lane id=":1723707795_w1_0" index="0" allow="pedestrian" speed="1.00" length="0.48" width="2.00" shape="253.96,341.43 253.61,339.46 253.12,339.55 253.51,341.52"/>
    </edge>
    <edge id=":2139974418_0" function="internal">
        <lane id=":2139974418_0_0" index="0" allow="authority army vip hov motorcycle moped bicycle evehicle custom1 custom2" speed="27.78" length="0.43" width="2.00" shape="285.61,137.25 285.43,137.12"/>
        <lane id=":2139974418_0_1" index="1" disallow="pedestrian tram rail_urban rail rail_electric rail_fast ship" speed="27.78" length="0.43" shape="287.24,135.23 286.91,134.98"/>
        <lane id=":2139974418_0_2" index="2" allow="private emergency authority army vip passenger hov taxi bus coach delivery truck trailer motorcycle evehicle custom1 custom2" speed="27.78" length="0.43" shape="289.25,132.74 288.73,132.35"/>
    </edge>
    <edge id=":2139974418_w0" function="walkingarea">
        <lane id=":2139974418_w0_0" index="0" allow="pedestrian" speed="1.00" length="0.10" width="2.00" shape="284.86,137.94 283.73,139.59 283.73,139.59 284.98,138.03"/>
    </edge>
    <edge id=":5363872669_0" function="internal">
        <lane id=":5363872669_0_0" index="0" allow="authority army vip hov motorcycle moped bicycle evehicle custom1 custom2" speed="22.22" length="0.74" width="2.00" shape="335.67,343.02 335.33,343.13 335.10,343.20 334.86,343.26 334.51,343.32"/>
        <lane id=":5363872669_0_1" index="1" disallow="pedestrian tram rail_urban rail rail_electric rail_fast ship" speed="22.22" length="0.74" shape="334.81,340.56 334.59,340.64 334.44,340.68 334.29,340.72 334.06,340.76"/>
        <lane id=":5363872669_0_2" index="2" allow="private emergency authority army vip passenger hov taxi bus coach delivery truck trailer motorcycle evehicle custom1 custom2" speed="22.22" length="0.74" shape="333.76,337.54 333.68,337.57 333.63,337.58 333.58,337.59 333.51,337.61"/>
    </edge>
    <edge id=":5363872669_w0" function="walkingarea">
        <lane id=":5363872669_w0_0" index="0" allow="pedestrian" speed="1.00" length="1.52" width="2.00" shape="334.68,344.30 335.03,346.27 336.66,345.85 336.00,343.96 335.72,344.06 335.52,344.12 335.35,344.17 335.18,344.21 334.97,344.25"/>
    </edge>
    <edge id=":864831539_w0" function="walkingarea">
        <lane id=":864831539_w0_0" index="0" allow="pedestrian" speed="1.00" length="18.80" width="2.00" shape="-0.13,391.32 -0.51,389.35 3.49,409.77 3.11,407.80"/>
    </edge>
    <edge id=":949661329_0" function="internal">
        <lane id=":949661329_0_0" index="0" allow="authority army vip hov motorcycle moped bicycle evehicle custom1 custom2" speed="27.78" length="0.39" width="2.00" shape="293.91,124.90 294.41,125.28"/>
        <lane id=":949661329_0_1" index="1" disallow="pedestrian tram rail_urban rail rail_electric rail_fast ship" speed="27.78" length="0.39" shape="292.45,127.06 292.78,127.30"/>
        <lane id=":949661329_0_2" index="2" allow="private emergency authority army vip passenger hov taxi bus coach delivery truck trailer motorcycle evehicle custom1 custom2" speed="27.78" length="0.39" shape="290.66,129.71 290.77,129.79"/>
    </edge>
    <edge id=":949661329_w0" function="walkingarea">
        <lane id=":949661329_w0_0" index="0" allow="pedestrian" speed="1.00" length="0.79" width="2.00" shape="295.04,124.50 296.30,122.94 295.59,122.42 294.47,124.08"/>
    </edge>
    <edge id=":J0_0" function="internal">
        <lane id=":J0_0_0" index="0" allow="authority army vip hov motorcycle moped bicycle evehicle custom1 custom2" speed="22.22" length="0.94" width="2.00" shape="330.95,328.90 331.09,328.87 331.19,328.85 331.28,328.82 331.42,328.78"/>
        <lane id=":J0_0_1" index="1" disallow="pedestrian tram rail_urban rail rail_electric rail_fast ship" speed="22.22" length="0.94" shape="331.40,331.46 331.66,331.41 331.84,331.37 332.02,331.32 332.27,331.23"/>
        <lane id=":J0_0_2" index="2" allow="private emergency authority army vip passenger hov taxi bus coach delivery truck trailer motorcycle evehicle custom1 custom2" speed="22.22" length="0.94" shape="331.96,334.61 332.37,334.54 332.65,334.47 332.93,334.39 333.33,334.25"/>
    </edge>
    <edge id=":J0_w0" function="walkingarea">
        <lane id=":J0_w0_0" index="0" allow="pedestrian" speed="1.00" length="0.16" width="2.00" shape="331.09,327.83 330.43,325.94 330.43,325.94 330.78,327.91 330.84,327.90 330.89,327.89 330.93,327.88 330.98,327.87 331.02,327.85"/>
    </edge>
    <edge id=":J1_0" function="internal">
        <lane id=":J1_0_0" index="0" allow="authority army vip hov motorcycle moped bicycle evehicle custom1 custom2" speed="16.14" length="27.50" width="2.00" shape="487.11,298.05 482.45,296.23 475.16,296.31 465.26,298.29 460.39,299.80"/>
        <lane id=":J1_0_1" index="1" disallow="pedestrian tram rail_urban rail rail_electric rail_fast ship" speed="16.36" length="28.48" shape="487.11,298.05 481.52,295.35 473.78,294.73 463.90,296.18 459.57,297.45"/>
    </edge>
    <edge id=":J1_2" function="internal">
        <lane id=":J1_2_0" index="0" allow="authority army vip hov motorcycle moped bicycle evehicle custom1 custom2" speed="27.78" length="45.99" width="2.00" shape="487.11,298.05 450.52,270.19"/>
        <lane id=":J1_2_1" index="1" disallow="pedestrian tram rail_urban rail rail_electric rail_fast ship" speed="27.78" length="45.99" shape="487.11,298.05 452.15,268.17"/>
    </edge>
    <edge id=":J1_4" function="internal">
        <lane id=":J1_4_0" index="0" allow="moped" speed="14.97" length="42.00" width="2.00" shape="487.11,298.05 480.55,295.64 475.61,294.84 466.28,293.37 458.67,292.30 457.07,287.50 464.47,284.98"/>
        <lane id=":J1_4_1" index="1" allow="moped" speed="14.99" length="42.00" shape="487.11,298.05 480.55,295.64 475.61,294.84 466.28,293.37 458.67,292.30 457.07,287.50 464.62,285.49"/>
    </edge>
    <edge id=":J1_6" function="internal">
        <lane id=":J1_6_0" index="0" allow="private emergency authority army vip passenger hov taxi bus coach delivery truck trailer motorcycle evehicle custom1 custom2" speed="27.78" length="46.02" shape="489.25,295.46 454.16,265.68"/>
    </edge>
    <edge id=":J1_7" function="internal">
        <lane id=":J1_7_0" index="0" allow="private emergency authority army vip passenger hov taxi bus coach delivery truck trailer motorcycle evehicle custom1 custom2" speed="8.26" length="3.65" shape="491.28,292.99 488.81,290.31"/>
    </edge>
    <edge id=":J1_30" function="internal">
        <lane id=":J1_30_0" index="0" allow="authority army vip hov motorcycle moped bicycle evehicle custom1 custom2" speed="16.14" length="8.01" width="2.00" shape="460.39,299.80 452.74,302.17"/>
    </edge>
    <edge id=":J1_31" function="internal">
        <lane id=":J1_31_0" index="0" disallow="pedestrian tram rail_urban rail rail_electric rail_fast ship" speed="16.36" length="8.01" shape="459.57,297.45 451.88,299.71"/>
    </edge>
    <edge id=":J1_32" function="internal">
        <lane id=":J1_32_0" index="0" allow="moped" speed="14.97" length="30.20" width="2.00" shape="464.47,284.98 493.05,275.23"/>
    </edge>
    <edge id=":J1_33" function="internal">
        <lane id=":J1_33_0" index="0" allow="moped" speed="14.99" length="30.41" shape="464.62,285.49 494.01,277.65"/>
    </edge>
    <edge id=":J1_34" function="internal">
        <lane id=":J1_34_0" index="0" allow="private emergency authority army vip passenger hov taxi bus coach delivery truck trailer motorcycle evehicle custom1 custom2" speed="8.26" length="17.39" shape="488.81,290.31 487.08,288.43 486.13,284.35 488.44,280.76 494.01,277.65"/>
    </edge>
    <edge id=":J1_8" function="internal">
        <lane id=":J1_8_0" index="0" allow="authority army vip hov motorcycle moped bicycle evehicle custom1 custom2" speed="4.63" length="6.16" width="3.40" shape="496.26,283.32 494.65,284.22 494.00,285.28 494.30,286.48 495.55,287.83"/>
    </edge>
    <edge id=":J1_9" function="internal">
        <lane id=":J1_9_0" index="0" allow="authority army vip hov motorcycle moped bicycle evehicle custom1 custom2" speed="22.22" length="47.43" width="2.00" shape="496.26,283.32 452.74,302.17"/>
    </edge>
    <edge id=":J1_10" function="internal">
        <lane id=":J1_10_0" index="0" allow="private emergency authority army vip passenger hov taxi bus coach delivery truck trailer motorcycle evehicle custom1 custom2" speed="6.73" length="4.72" width="3.40" shape="495.25,280.76 491.69,282.74 491.33,283.28"/>
    </edge>
    <edge id=":J1_11" function="internal">
        <lane id=":J1_11_0" index="0" disallow="pedestrian tram rail_urban rail rail_electric rail_fast ship" speed="22.22" length="47.26" shape="495.25,280.76 451.88,299.71"/>
        <lane id=":J1_11_1" index="1" allow="private emergency authority army vip passenger hov taxi bus coach delivery truck trailer motorcycle evehicle custom1 custom2" speed="22.22" length="47.26" shape="495.25,280.76 450.83,296.69"/>
    </edge>
    <edge id=":J1_35" function="internal">
        <lane id=":J1_35_0" index="0" allow="private emergency authority army vip passenger hov taxi bus coach delivery truck trailer motorcycle evehicle custom1 custom2" speed="6.73" length="8.59" width="3.40" shape="491.33,283.28 490.19,285.01 490.76,287.58 493.38,290.45"/>
    </edge>
    <edge id=":J1_13" function="internal">
        <lane id=":J1_13_0" index="0" allow="moped bicycle" speed="16.30" length="38.06" width="2.00" shape="459.83,258.78 471.14,267.26 480.45,272.83 487.75,275.49 493.05,275.23"/>
    </edge>
    <edge id=":J1_14" function="internal">
        <lane id=":J1_14_0" index="0" allow="authority army vip hov motorcycle moped bicycle evehicle custom1 custom2" speed="27.78" length="46.04" width="3.40" shape="459.83,258.78 495.55,287.83"/>
    </edge>
    <edge id=":J1_15" function="internal">
        <lane id=":J1_15_0" index="0" allow="moped" speed="16.10" length="42.00" width="2.00" shape="459.77,258.72 470.62,268.51 478.24,272.72 486.26,276.02 493.52,282.55 493.30,282.65"/>
        <lane id=":J1_15_1" index="1" allow="moped" speed="16.08" length="42.00" shape="459.77,258.72 470.62,268.51 478.24,272.72 486.26,276.02 493.52,282.55 493.30,282.64"/>
    </edge>
    <edge id=":J1_17" function="internal">
        <lane id=":J1_17_0" index="0" disallow="pedestrian tram rail_urban rail rail_electric rail_fast ship" speed="16.91" length="22.26" shape="458.20,260.80 470.11,269.67 476.53,273.38"/>
    </edge>
    <edge id=":J1_18" function="internal">
        <lane id=":J1_18_0" index="0" disallow="pedestrian tram rail_urban rail rail_electric rail_fast ship" speed="27.78" length="46.10" width="3.40" shape="458.20,260.80 495.55,287.83"/>
    </edge>
    <edge id=":J1_19" function="internal">
        <lane id=":J1_19_0" index="0" allow="moped" speed="16.20" length="29.03" width="2.00" shape="458.13,260.75 461.31,262.90 471.93,271.01 480.04,276.82 481.79,277.41"/>
        <lane id=":J1_19_1" index="1" allow="moped" speed="16.18" length="29.03" shape="458.13,260.75 461.31,262.90 471.93,271.01 480.04,276.82 481.79,277.41"/>
    </edge>
    <edge id=":J1_21" function="internal">
        <lane id=":J1_21_0" index="0" allow="private emergency authority army vip passenger hov taxi bus coach delivery truck trailer motorcycle evehicle custom1 custom2" speed="27.78" length="46.05" width="3.40" shape="456.19,263.29 493.38,290.45"/>
    </edge>
    <edge id=":J1_22" function="internal">
        <lane id=":J1_22_0" index="0" allow="private emergency authority army vip passenger hov taxi bus coach delivery truck trailer motorcycle evehicle custom1 custom2" speed="11.50" length="3.84" shape="456.19,263.29 458.66,266.23"/>
    </edge>
    <edge id=":J1_36" function="internal">
        <lane id=":J1_36_0" index="0" allow="moped" speed="16.10" length="45.01" width="2.00" shape="493.30,282.65 452.74,302.17"/>
    </edge>
    <edge id=":J1_37" function="internal">
        <lane id=":J1_37_0" index="0" allow="moped" speed="16.08" length="44.80" shape="493.30,282.64 451.88,299.71"/>
    </edge>
    <edge id=":J1_38" function="internal">
        <lane id=":J1_38_0" index="0" disallow="pedestrian tram rail_urban rail rail_electric rail_fast ship" speed="16.91" length="18.48" shape="476.53,273.38 480.06,275.43 488.02,278.09 494.01,277.65"/>
    </edge>
    <edge id=":J1_39" function="internal">
        <lane id=":J1_39_0" index="0" allow="moped" speed="16.20" length="58.52" width="2.00" shape="481.79,277.41 486.86,279.13 491.37,280.03 493.52,282.55 452.74,302.17"/>
    </edge>
    <edge id=":J1_40" function="internal">
        <lane id=":J1_40_0" index="0" allow="moped" speed="16.18" length="58.30" shape="481.79,277.41 486.86,279.13 491.37,280.03 493.52,282.55 451.88,299.71"/>
    </edge>
    <edge id=":J1_41" function="internal">
        <lane id=":J1_41_0" index="0" allow="private emergency authority army vip passenger hov taxi bus coach delivery truck trailer motorcycle evehicle custom1 custom2" speed="11.50" length="39.55" shape="458.66,266.23 464.02,272.62 465.65,282.10 461.21,290.52 450.83,296.69"/>
    </edge>
    <edge id=":J1_23" function="internal">
        <lane id=":J1_23_0" index="0" allow="authority army vip hov motorcycle moped bicycle evehicle custom1 custom2" speed="8.78" length="17.11" width="2.00" shape="447.86,288.18 454.57,284.78 457.24,280.65 456.00,276.15"/>
    </edge>
    <edge id=":J1_24" function="internal">
        <lane id=":J1_24_0" index="0" allow="moped bicycle" speed="22.22" length="47.00" width="2.00" shape="447.86,288.18 493.05,275.23"/>
    </edge>
    <edge id=":J1_25" function="internal">
        <lane id=":J1_25_0" index="0" allow="moped" speed="22.18" length="45.00" width="3.40" shape="447.86,288.18 454.53,285.42 466.78,264.90 477.63,273.55"/>
    </edge>
    <edge id=":J1_26" function="internal">
        <lane id=":J1_26_0" index="0" disallow="pedestrian tram rail_urban rail rail_electric rail_fast ship" speed="9.87" length="3.77" shape="448.72,290.64 452.08,288.93"/>
    </edge>
    <edge id=":J1_27" function="internal">
        <lane id=":J1_27_0" index="0" disallow="pedestrian tram rail_urban rail rail_electric rail_fast ship" speed="22.22" length="47.11" shape="448.72,290.64 494.01,277.65"/>
    </edge>
    <edge id=":J1_28" function="internal">
        <lane id=":J1_28_0" index="0" allow="moped" speed="22.41" length="46.20" width="3.40" shape="448.71,290.65 454.30,287.65 466.78,264.90 477.66,273.57"/>
        <lane id=":J1_28_1" index="1" allow="private emergency authority army vip passenger hov taxi bus coach delivery truck trailer motorcycle evehicle custom1 custom2" speed="18.15" length="13.33" width="3.40" shape="449.77,293.66 462.54,289.84"/>
    </edge>
    <edge id=":J1_42" function="internal">
        <lane id=":J1_42_0" index="0" allow="authority army vip hov motorcycle moped bicycle evehicle custom1 custom2" speed="8.78" length="8.13" width="2.00" shape="456.00,276.15 455.89,275.78 450.52,270.19"/>
    </edge>
    <edge id=":J1_43" function="internal">
        <lane id=":J1_43_0" index="0" allow="moped" speed="22.18" length="22.91" width="3.40" shape="477.63,273.55 495.55,287.83"/>
    </edge>
    <edge id=":J1_44" function="internal">
        <lane id=":J1_44_0" index="0" disallow="pedestrian tram rail_urban rail rail_electric rail_fast ship" speed="9.87" length="27.78" shape="452.08,288.93 457.13,286.38 460.50,281.21 458.84,275.14 452.15,268.17"/>
    </edge>
    <edge id=":J1_45" function="internal">
        <lane id=":J1_45_0" index="0" allow="moped" speed="22.41" length="22.88" width="3.40" shape="477.66,273.57 495.55,287.83"/>
    </edge>
    <edge id=":J1_46" function="internal">
        <lane id=":J1_46_0" index="0" allow="private emergency authority army vip passenger hov taxi bus coach delivery truck trailer motorcycle evehicle custom1 custom2" speed="18.15" length="31.77" width="3.40" shape="462.54,289.84 465.02,289.09 477.37,287.04 486.82,287.49 493.38,290.45"/>
    </edge>
    <edge id=":J1_c0" function="crossing" crossingEdges="-ZS2 ZS2">
        <lane id=":J1_c0_0" index="0" allow="pedestrian" speed="1.00" length="16.73" width="8.00" shape="453.01,273.48 463.57,260.51"/>
    </edge>
    <edge id=":J1_c1" function="crossing" crossingEdges="-CK2 CK3">
        <lane id=":J1_c1_0" index="0" allow="pedestrian" speed="1.00" length="16.81" width="8.00" shape="456.84,301.79 451.31,285.92"/>
    </edge>
    <edge id=":J1_w0" function="walkingarea">
        <lane id=":J1_w0_0" index="0" allow="pedestrian" speed="1.00" length="21.63" width="8.00" shape="453.07,303.11 453.73,305.00 484.73,300.94 486.00,299.40 483.25,297.98 479.40,297.38 474.45,297.59 468.42,298.62 461.29,300.46"/>
    </edge>
    <edge id=":J1_w1" function="walkingarea">
        <lane id=":J1_w1_0" index="0" allow="pedestrian" speed="1.00" length="23.59" width="8.00" shape="492.68,274.31 491.94,272.45 461.72,256.44 460.46,258.00 468.07,263.87 474.78,268.48 480.60,271.83 485.52,273.92 489.55,274.74"/>
    </edge>
    <edge id=":J1_w2" function="walkingarea">
        <lane id=":J1_w2_0" index="0" allow="pedestrian" speed="1.00" length="10.65" width="8.00" shape="449.89,270.97 448.64,272.53 446.88,285.35 447.53,287.24 449.80,285.65 451.39,282.98 452.25,279.72 452.33,276.32 451.56,273.24"/>
    </edge>
    <edge id=":J4_0" function="internal">
        <lane id=":J4_0_0" index="0" allow="authority army vip hov motorcycle moped bicycle evehicle custom1 custom2" speed="18.05" length="16.53" shape="527.72,256.96 530.47,273.25"/>
    </edge>
    <edge id=":J4_1" function="internal">
        <lane id=":J4_1_0" index="0" allow="authority army vip hov motorcycle moped bicycle evehicle custom1 custom2" speed="10.10" length="20.60" width="2.00" shape="527.72,256.96 528.26,262.80 527.13,267.58 524.33,271.29 519.87,273.92"/>
    </edge>
    <edge id=":J4_2" function="internal">
        <lane id=":J4_2_0" index="0" disallow="pedestrian tram rail_urban rail rail_electric rail_fast ship" speed="18.05" length="16.54" shape="525.03,257.53 527.34,273.91"/>
    </edge>
    <edge id=":J4_3" function="internal">
        <lane id=":J4_3_0" index="0" disallow="pedestrian tram rail_urban rail rail_electric rail_fast ship" speed="9.23" length="16.69" width="3.50" shape="525.03,257.53 525.49,262.33 524.61,266.23 522.40,269.25 518.86,271.37"/>
    </edge>
    <edge id=":J4_4" function="internal">
        <lane id=":J4_4_0" index="0" allow="moped bicycle" speed="6.51" length="8.23" width="2.00" shape="516.66,265.84 518.22,264.84 519.17,263.33 519.50,261.31 519.21,258.78"/>