<?xml version="1.0" encoding="UTF-8"?>

<!-- generated on 2022-05-12 18:05:49 by Eclipse SUMO netedit Version 1.12.0
<configuration xmlns:xsi="http://www.w3.org/2001/XMLSchema-instance" xsi:noNamespaceSchemaLocation="http://sumo.dlr.de/xsd/netconvertConfiguration.xsd">

    <input>
        <sumo-net-file value="D:\sumoo\demonstration.net.xml"/>
    </input>

    <output>
        <output-file value="D:\sumoo\demonstration.net.xml"/>
    </output>

    <processing>
        <geometry.min-radius.fix.railways value="false"/>
        <geometry.max-grade.fix value="false"/>
        <offset.disable-normalization value="true"/>
        <lefthand value="false"/>
    </processing>

    <junctions>
        <no-internal-links value="false"/>
        <no-turnarounds value="true"/>
        <junctions.corner-detail value="5"/>
        <junctions.limit-turn-speed value="5.5"/>
        <rectangular-lane-cut value="false"/>
    </junctions>

    <pedestrian>
        <walkingareas value="true"/>
    </pedestrian>

    <report>
        <aggregate-warnings value="5"/>
    </report>

</configuration>
-->

<net version="1.9" junctionCornerDetail="5" walkingareas="true" limitTurnSpeed="5.50" xmlns:xsi="http://www.w3.org/2001/XMLSchema-instance" xsi:noNamespaceSchemaLocation="http://sumo.dlr.de/xsd/net_file.xsd">

    <location netOffset="-213682.69,-2545632.16" convBoundary="0.34,0.00,595.86,632.39" origBoundary="120.206972,22.994526,120.212741,23.000234" projParameter="+proj=utm +zone=51 +ellps=WGS84 +datum=WGS84 +units=m +no_defs"/>

    <type id="highway.bridleway" priority="1" numLanes="1" speed="2.78" allow="pedestrian" oneway="1" width="2.00"/>
    <type id="highway.bus_guideway" priority="1" numLanes="1" speed="27.78" allow="bus" oneway="1"/>
    <type id="highway.cycleway" priority="1" numLanes="1" speed="8.33" allow="bicycle" oneway="0" width="1.00"/>
    <type id="highway.footway" priority="1" numLanes="1" speed="2.78" allow="pedestrian" oneway="1" width="2.00"/>
    <type id="highway.ford" priority="1" numLanes="1" speed="2.78" allow="army" oneway="0"/>
    <type id="highway.living_street" priority="2" numLanes="1" speed="2.78" disallow="tram rail_urban rail rail_electric rail_fast ship" oneway="0"/>
    <type id="highway.motorway" priority="14" numLanes="2" speed="39.44" allow="private emergency authority army vip passenger hov taxi bus coach delivery truck trailer motorcycle evehicle custom1 custom2" oneway="1"/>
    <type id="highway.motorway_link" priority="9" numLanes="1" speed="22.22" allow="private emergency authority army vip passenger hov taxi bus coach delivery truck trailer motorcycle evehicle custom1 custom2" oneway="1"/>
    <type id="highway.path" priority="1" numLanes="1" speed="2.78" allow="pedestrian bicycle" oneway="0" width="2.00"/>
    <type id="highway.pedestrian" priority="1" numLanes="1" speed="2.78" allow="pedestrian" oneway="1" width="2.00"/>
    <type id="highway.primary" priority="12" numLanes="2" speed="27.78" disallow="tram rail_urban rail rail_electric rail_fast ship" oneway="0"/>
    <type id="highway.primary_link" priority="7" numLanes="1" speed="22.22" disallow="tram rail_urban rail rail_electric rail_fast ship" oneway="0"/>
    <type id="highway.raceway" priority="15" numLanes="2" speed="83.33" allow="vip" oneway="0"/>
    <type id="highway.residential" priority="3" numLanes="1" speed="13.89" disallow="tram rail_urban rail rail_electric rail_fast ship" oneway="0"/>
    <type id="highway.secondary" priority="11" numLanes="1" speed="27.78" disallow="tram rail_urban rail rail_electric rail_fast ship" oneway="0"/>
    <type id="highway.secondary_link" priority="6" numLanes="1" speed="22.22" disallow="tram rail_urban rail rail_electric rail_fast ship" oneway="0"/>
    <type id="highway.service" priority="1" numLanes="1" speed="5.56" allow="pedestrian delivery bicycle" oneway="0"/>
    <type id="highway.stairs" priority="1" numLanes="1" speed="1.39" allow="pedestrian" oneway="1" width="2.00"/>
    <type id="highway.step" priority="1" numLanes="1" speed="1.39" allow="pedestrian" oneway="1" width="2.00"/>
    <type id="highway.steps" priority="1" numLanes="1" speed="1.39" allow="pedestrian" oneway="1" width="2.00"/>
    <type id="highway.tertiary" priority="10" numLanes="1" speed="22.22" disallow="tram rail_urban rail rail_electric rail_fast ship" oneway="0"/>
    <type id="highway.tertiary_link" priority="5" numLanes="1" speed="22.22" disallow="tram rail_urban rail rail_electric rail_fast ship" oneway="0"/>
    <type id="highway.track" priority="1" numLanes="1" speed="5.56" allow="pedestrian motorcycle moped bicycle" oneway="0"/>
    <type id="highway.trunk" priority="13" numLanes="2" speed="27.78" disallow="pedestrian bicycle tram rail_urban rail rail_electric rail_fast ship" oneway="0"/>
    <type id="highway.trunk_link" priority="8" numLanes="1" speed="22.22" disallow="pedestrian bicycle tram rail_urban rail rail_electric rail_fast ship" oneway="0"/>
    <type id="highway.unclassified" priority="4" numLanes="1" speed="13.89" disallow="tram rail_urban rail rail_electric rail_fast ship" oneway="0"/>
    <type id="highway.unsurfaced" priority="1" numLanes="1" speed="8.33" disallow="tram rail_urban rail rail_electric rail_fast ship" oneway="0"/>
    <type id="railway.highspeed" priority="21" numLanes="1" speed="69.44" allow="rail_fast" oneway="1"/>
    <type id="railway.light_rail" priority="19" numLanes="1" speed="27.78" allow="rail_urban" oneway="1"/>
    <type id="railway.preserved" priority="16" numLanes="1" speed="27.78" allow="rail" oneway="1"/>
    <type id="railway.rail" priority="20" numLanes="1" speed="44.44" allow="rail" oneway="1"/>
    <type id="railway.subway" priority="18" numLanes="1" speed="27.78" allow="rail_urban" oneway="1"/>
    <type id="railway.tram" priority="17" numLanes="1" speed="13.89" allow="tram" oneway="1"/>

    <edge id=":1240618188_0" function="internal">
        <lane id=":1240618188_0_0" index="0" disallow="pedestrian tram rail_urban rail rail_electric rail_fast ship" speed="3.65" length="4.67" shape="597.43,600.44 596.88,601.78 596.18,602.33 595.31,602.09 594.29,601.08"/>
    </edge>
    <edge id=":1240618188_w0" function="walkingarea">
        <lane id=":1240618188_w0_0" index="0" allow="pedestrian" speed="1.00" length="14.80" width="2.00" shape="589.59,602.03 587.63,602.43 604.09,599.09 602.13,599.49"/>
    </edge>
    <edge id=":1268711606_0" function="internal">
        <lane id=":1268711606_0_0" index="0" disallow="pedestrian tram rail_urban rail rail_electric rail_fast ship" speed="27.78" length="0.30" shape="558.61,440.85 558.56,440.56"/>
        <lane id=":1268711606_0_1" index="1" allow="private emergency authority army vip passenger hov taxi bus coach delivery truck trailer motorcycle evehicle custom1 custom2" speed="27.78" length="0.30" shape="561.75,440.21 561.69,439.92"/>
    </edge>
    <edge id=":1268711606_2" function="internal">
        <lane id=":1268711606_2_0" index="0" disallow="pedestrian tram rail_urban rail rail_electric rail_fast ship" speed="27.78" length="0.30" shape="567.96,438.65 568.02,438.95"/>
        <lane id=":1268711606_2_1" index="1" allow="private emergency authority army vip passenger hov taxi bus coach delivery truck trailer motorcycle evehicle custom1 custom2" speed="27.78" length="0.30" shape="564.83,439.28 564.89,439.58"/>
    </edge>
    <edge id=":1268711606_w0" function="walkingarea">
        <lane id=":1268711606_w0_0" index="0" allow="pedestrian" speed="1.00" length="0.30" width="2.00" shape="556.99,440.88 555.03,441.27 555.09,441.56 557.05,441.17"/>
    </edge>
    <edge id=":1268711606_w1" function="walkingarea">
        <lane id=":1268711606_w1_0" index="0" allow="pedestrian" speed="1.00" length="0.30" width="2.00" shape="569.59,438.63 571.55,438.23 571.49,437.93 569.53,438.33"/>
    </edge>
    <edge id=":1649165602_0" function="internal">
        <lane id=":1649165602_0_0" index="0" disallow="pedestrian tram rail_urban rail rail_electric rail_fast ship" speed="3.65" length="4.67" shape="484.30,0.15 484.98,-1.12 485.74,-1.59 486.58,-1.27 487.48,-0.15"/>
    </edge>
    <edge id=":1649165602_w0" function="walkingarea">
        <lane id=":1649165602_w0_0" index="0" allow="pedestrian" speed="1.00" length="12.40" width="2.00" shape="491.07,-0.48 493.06,-0.67 478.72,0.67 480.71,0.48"/>
    </edge>
    <edge id=":1723635522_0" function="internal">
        <lane id=":1723635522_0_0" index="0" allow="moped bicycle" speed="22.22" length="0.10" width="2.00" shape="490.63,108.13 490.63,108.13"/>
        <lane id=":1723635522_0_1" index="1" disallow="pedestrian tram rail_urban rail rail_electric rail_fast ship" speed="22.22" length="0.10" shape="493.22,107.85 493.22,107.85"/>
    </edge>
    <edge id=":1723635522_2" function="internal">
        <lane id=":1723635522_2_0" index="0" allow="authority army vip hov motorcycle moped bicycle evehicle custom1 custom2" speed="22.22" length="0.10" width="2.00" shape="498.99,107.23 498.99,107.23"/>
        <lane id=":1723635522_2_1" index="1" disallow="pedestrian tram rail_urban rail rail_electric rail_fast ship" speed="22.22" length="0.10" shape="496.40,107.51 496.40,107.51"/>
    </edge>
    <edge id=":1723635522_w0" function="walkingarea">
        <lane id=":1723635522_w0_0" index="0" allow="pedestrian" speed="1.00" length="0.10" width="2.00" shape="489.64,108.24 487.65,108.45 487.65,108.45 489.64,108.24"/>
    </edge>
    <edge id=":1723635522_w1" function="walkingarea">
        <lane id=":1723635522_w1_0" index="0" allow="pedestrian" speed="1.00" length="0.10" width="2.00" shape="499.98,107.12 501.97,106.91 501.97,106.91 499.98,107.12"/>
    </edge>
    <edge id=":1723707795_0" function="internal">
        <lane id=":1723707795_0_0" index="0" allow="authority army vip hov motorcycle moped bicycle evehicle custom1 custom2" speed="22.22" length="0.30" width="2.00" shape="254.09,344.27 254.34,344.22"/>
        <lane id=":1723707795_0_1" index="1" disallow="pedestrian tram rail_urban rail rail_electric rail_fast ship" speed="22.22" length="0.30" shape="254.56,346.83 254.85,346.77"/>
        <lane id=":1723707795_0_2" index="2" allow="private emergency authority army vip passenger hov taxi bus coach delivery truck trailer motorcycle evehicle custom1 custom2" speed="22.22" length="0.30" shape="255.14,349.98 255.48,349.91"/>
    </edge>
    <edge id=":1723707795_w0" function="walkingarea">
        <lane id=":1723707795_w0_0" index="0" allow="pedestrian" speed="1.00" length="0.22" width="2.00" shape="254.14,343.24 253.75,341.28 253.55,341.32 253.91,343.29"/>
    </edge>
    <edge id=":2139974418_0" function="internal">
        <lane id=":2139974418_0_0" index="0" allow="authority army vip hov motorcycle moped bicycle evehicle custom1 custom2" speed="27.78" length="0.30" width="2.00" shape="285.69,137.30 285.47,137.15"/>
        <lane id=":2139974418_0_1" index="1" disallow="pedestrian tram rail_urban rail rail_electric rail_fast ship" speed="27.78" length="0.30" shape="287.19,135.18 286.95,135.01"/>
        <lane id=":2139974418_0_2" index="2" allow="private emergency authority army vip passenger hov taxi bus coach delivery truck trailer motorcycle evehicle custom1 custom2" speed="27.78" length="0.30" shape="289.04,132.57 288.76,132.37"/>
    </edge>
    <edge id=":2139974418_w0" function="walkingarea">
        <lane id=":2139974418_w0_0" index="0" allow="pedestrian" speed="1.00" length="0.25" width="2.00" shape="284.90,137.97 283.77,139.62 283.96,139.75 285.11,138.12"/>
    </edge>
    <edge id=":265510098_w0" function="walkingarea">
        <lane id=":265510098_w0_0" index="0" allow="pedestrian" speed="1.00" length="0.10" width="3.20" shape="3.73,407.12 3.37,405.15 3.37,405.15 2.80,402.01"/>
    </edge>
    <edge id=":265766465_0" function="internal">
        <lane id=":265766465_0_0" index="0" allow="bus delivery moped bicycle" speed="8.88" length="13.46" shape="479.97,345.22 477.66,346.24 475.85,348.41 474.54,351.73 473.74,356.20"/>
    </edge>
    <edge id=":265766465_1" function="internal">
        <lane id=":265766465_1_0" index="0" allow="bus delivery moped bicycle" speed="5.28" length="12.58" width="5.00" shape="479.97,345.22 476.18,345.88 473.58,346.27 470.97,346.53 467.14,346.80"/>
        <lane id=":265766465_1_1" index="1" allow="bus delivery moped bicycle" speed="5.56" length="12.58" width="2.50" shape="479.32,341.53 475.66,342.16 473.14,342.54 470.60,342.80 466.89,343.06"/>
        <lane id=":265766465_1_2" index="2" allow="bus delivery moped bicycle" speed="5.56" length="12.58" width="2.50" shape="478.90,339.07 475.31,339.69 472.84,340.06 470.36,340.31 466.73,340.56"/>
    </edge>
    <edge id=":265766465_4" function="internal">
        <lane id=":265766465_4_0" index="0" allow="private emergency authority army vip passenger hov taxi bus coach delivery truck trailer motorcycle evehicle custom1 custom2" speed="13.89" length="19.85" shape="475.75,336.45 473.74,356.20"/>
    </edge>
    <edge id=":265766465_5" function="internal">
        <lane id=":265766465_5_0" index="0" allow="bus delivery moped bicycle" speed="6.71" length="10.96" width="5.00" shape="470.55,355.85 470.73,351.78 470.21,348.91 469.02,347.25 467.14,346.80"/>
    </edge>
    <edge id=":265766465_6" function="internal">
        <lane id=":265766465_6_0" index="0" allow="private emergency authority army vip passenger hov taxi coach delivery truck trailer motorcycle evehicle custom1 custom2" speed="13.89" length="19.81" shape="470.55,355.85 472.57,336.14"/>
    </edge>
    <edge id=":265766465_c0" function="crossing" crossingEdges="-FB2 FB2">
        <lane id=":265766465_c0_0" index="0" allow="pedestrian" speed="1.00" length="6.40" width="5.00" shape="475.60,353.89 469.24,353.19"/>
    </edge>
    <edge id=":265766465_w0" function="walkingarea">
        <lane id=":265766465_w0_0" index="0" allow="pedestrian" speed="1.00" length="6.42" width="5.00" shape="475.33,356.37 481.25,352.61 480.39,347.69 479.09,348.13 477.97,348.98 477.03,350.22 476.28,351.87 475.71,353.92"/>
    </edge>
    <edge id=":265766465_w1" function="walkingarea">
        <lane id=":265766465_w1_0" index="0" allow="pedestrian" speed="1.00" length="2.26" width="5.00" shape="467.30,349.29 467.63,354.28 468.96,355.67 469.12,353.68 469.10,352.06 468.91,350.81 468.54,349.93 468.01,349.43"/>
    </edge>
    <edge id=":3120082672_0" function="internal">
        <lane id=":3120082672_0_0" index="0" allow="authority army vip hov motorcycle moped bicycle evehicle custom1 custom2" speed="22.22" length="3.21" width="2.00" shape="258.13,357.57 257.25,357.89 256.73,358.34 256.21,358.79 255.34,359.11"/>
        <lane id=":3120082672_0_1" index="1" disallow="pedestrian tram rail_urban rail rail_electric rail_fast ship" speed="22.22" length="3.21" shape="257.63,355.01 256.77,355.34 256.26,355.79 255.74,356.23 254.87,356.55"/>
        <lane id=":3120082672_0_2" index="2" allow="private emergency authority army vip passenger hov taxi bus coach delivery truck trailer motorcycle evehicle custom1 custom2" speed="22.22" length="3.21" shape="257.03,351.87 256.17,352.20 255.67,352.64 255.16,353.08 254.30,353.40"/>
    </edge>
    <edge id=":3120082672_w0" function="walkingarea">
        <lane id=":3120082672_w0_0" index="0" allow="pedestrian" speed="1.00" length="3.20" width="3.20" shape="254.59,354.97 255.16,358.12 255.16,358.12 255.52,360.09 258.70,360.51 258.32,358.55"/>
    </edge>
    <edge id=":5363872669_0" function="internal">
        <lane id=":5363872669_0_0" index="0" allow="authority army vip hov motorcycle moped bicycle evehicle custom1 custom2" speed="22.22" length="0.40" width="2.00" shape="331.35,328.79 331.67,328.72"/>
        <lane id=":5363872669_0_1" index="1" disallow="pedestrian tram rail_urban rail rail_electric rail_fast ship" speed="22.22" length="0.40" shape="331.86,331.34 332.25,331.26"/>
        <lane id=":5363872669_0_2" index="2" allow="private emergency authority army vip passenger hov taxi bus coach delivery truck trailer motorcycle evehicle custom1 custom2" speed="22.22" length="0.40" shape="332.49,334.48 332.96,334.38"/>
    </edge>
    <edge id=":5363872669_w0" function="walkingarea">
        <lane id=":5363872669_w0_0" index="0" allow="pedestrian" speed="1.00" length="0.28" width="2.00" shape="331.45,327.75 331.00,325.80 330.76,325.85 331.15,327.81"/>
    </edge>
    <edge id=":864831418_0" function="internal">
        <lane id=":864831418_0_0" index="0" allow="moped bicycle" speed="10.13" length="10.05" width="2.00" shape="438.66,326.86 436.32,324.17 432.79,322.67 430.14,322.50"/>
        <lane id=":864831418_0_1" index="1" allow="bus delivery moped bicycle" speed="10.53" length="11.49" shape="438.66,326.86 435.81,323.12 432.01,320.85 429.69,320.45"/>
    </edge>
    <edge id=":864831418_2" function="internal">
        <lane id=":864831418_2_0" index="0" allow="bus delivery moped bicycle" speed="5.56" length="31.56" width="5.00" shape="438.66,326.86 435.30,318.88 433.82,311.15 434.21,303.69 436.48,296.48"/>
    </edge>
    <edge id=":864831418_3" function="internal">
        <lane id=":864831418_3_0" index="0" allow="moped bicycle" speed="10.69" length="12.98" width="2.00" shape="441.97,325.10 439.61,322.87 435.51,321.81 430.02,321.92"/>
    </edge>
    <edge id=":864831418_4" function="internal">
        <lane id=":864831418_4_0" index="0" allow="bus delivery moped bicycle" speed="5.56" length="28.13" width="2.50" shape="441.97,325.10 438.95,317.94 437.59,311.04 437.91,304.40 439.90,298.03"/>
        <lane id=":864831418_4_1" index="1" allow="bus delivery moped bicycle" speed="5.56" length="25.85" width="2.50" shape="444.18,323.93 441.37,317.31 440.10,310.96 440.37,304.87 442.17,299.06"/>
    </edge>
    <edge id=":864831418_12" function="internal">
        <lane id=":864831418_12_0" index="0" allow="moped bicycle" speed="10.13" length="8.10" width="2.00" shape="430.14,322.50 428.05,322.36 422.11,323.23"/>
    </edge>
    <edge id=":864831418_13" function="internal">
        <lane id=":864831418_13_0" index="0" allow="bus delivery moped bicycle" speed="10.53" length="8.22" shape="429.69,320.45 427.26,320.04 421.54,320.69"/>
    </edge>
    <edge id=":864831418_14" function="internal">
        <lane id=":864831418_14_0" index="0" allow="moped bicycle" speed="10.69" length="8.02" width="2.00" shape="430.02,321.92 429.68,321.93 422.11,323.23"/>
    </edge>
    <edge id=":864831418_6" function="internal">
        <lane id=":864831418_6_0" index="0" allow="private emergency authority army vip passenger hov taxi bus coach delivery truck trailer motorcycle evehicle custom1 custom2" speed="22.22" length="24.48" shape="445.39,314.91 421.54,320.69"/>
        <lane id=":864831418_6_1" index="1" allow="private emergency authority army vip passenger hov taxi bus coach delivery truck trailer motorcycle evehicle custom1 custom2" speed="22.22" length="24.48" shape="444.57,311.82 420.84,317.57"/>
    </edge>
    <edge id=":864831418_8" function="internal">
        <lane id=":864831418_8_0" index="0" allow="moped bicycle" speed="13.73" length="22.27" width="5.00" shape="418.89,308.84 425.00,306.92 429.97,304.23 433.80,300.74 436.48,296.48"/>
        <lane id=":864831418_8_1" index="1" allow="bus delivery moped bicycle" speed="13.89" length="25.25" width="2.50" shape="419.46,311.38 426.75,309.17 432.59,306.21 436.97,302.50 439.90,298.03"/>
    </edge>
    <edge id=":864831418_10" function="internal">
        <lane id=":864831418_10_0" index="0" allow="private emergency authority army vip passenger hov taxi coach delivery truck trailer motorcycle evehicle custom1 custom2" speed="22.22" length="24.23" shape="419.46,311.38 442.94,305.67"/>
        <lane id=":864831418_10_1" index="1" allow="private emergency authority army vip passenger hov taxi coach delivery truck trailer motorcycle evehicle custom1 custom2" speed="22.22" length="24.23" shape="420.16,314.50 443.76,308.76"/>
    </edge>
    <edge id=":864831418_c0" function="crossing" crossingEdges="-CK2 CK3">
        <lane id=":864831418_c0_0" index="0" allow="pedestrian" speed="1.00" length="16.76" width="8.00" shape="426.23,323.33 422.57,306.98"/>
    </edge>
    <edge id=":864831418_w0" function="walkingarea">
        <lane id=":864831418_w0_0" index="0" allow="pedestrian" speed="1.00" length="8.81" width="8.00" shape="422.33,324.20 422.77,326.15 432.03,330.37 436.45,328.03 435.14,326.19 433.41,324.83 431.27,323.95 428.70,323.55 425.72,323.64"/>
    </edge>
    <edge id=":864831418_w1" function="walkingarea">
        <lane id=":864831418_w1_0" index="0" allow="pedestrian" speed="1.00" length="12.71" width="8.00" shape="434.20,295.45 429.65,293.39 418.23,305.91 418.68,307.86 422.17,306.82 425.31,305.37 428.08,303.50 430.48,301.23 432.53,298.54"/>
    </edge>
    <edge id=":864831429_0" function="internal">
        <lane id=":864831429_0_0" index="0" allow="private emergency authority army vip passenger hov taxi bus coach delivery truck trailer motorcycle evehicle custom1 custom2" speed="6.56" length="7.64" shape="465.13,314.17 463.96,312.51 462.50,311.49 460.76,311.11 458.73,311.36"/>
    </edge>
    <edge id=":864831429_1" function="internal">
        <lane id=":864831429_1_0" index="0" disallow="pedestrian tram rail_urban rail rail_electric rail_fast ship" speed="18.35" length="18.45" shape="465.13,314.17 462.69,309.31 461.45,305.73 461.14,301.95 461.48,296.54"/>
    </edge>
    <edge id=":864831429_2" function="internal">
        <lane id=":864831429_2_0" index="0" allow="private emergency authority army vip passenger hov taxi bus coach delivery truck trailer motorcycle evehicle custom1 custom2" speed="8.06" length="3.57" shape="467.96,312.68 466.11,310.07 465.81,309.86"/>
    </edge>
    <edge id=":864831429_3" function="internal">
        <lane id=":864831429_3_0" index="0" disallow="pedestrian tram rail_urban rail rail_electric rail_fast ship" speed="17.41" length="15.71" shape="467.96,312.68 465.76,308.30 464.65,305.08 464.36,301.68 464.67,296.81"/>
        <lane id=":864831429_3_1" index="1" disallow="pedestrian tram rail_urban rail rail_electric rail_fast ship" speed="11.01" length="15.71" shape="470.94,311.10 469.25,308.96 468.17,305.92 467.70,301.96 467.86,297.08"/>
    </edge>
    <edge id=":864831429_7" function="internal">
        <lane id=":864831429_7_0" index="0" allow="private emergency authority army vip passenger hov taxi bus coach delivery truck trailer motorcycle evehicle custom1 custom2" speed="8.06" length="8.42" shape="465.81,309.86 463.82,308.47 461.09,307.87 457.91,308.27"/>
    </edge>
    <edge id=":864831429_5" function="internal">
        <lane id=":864831429_5_0" index="0" allow="private emergency authority army vip passenger hov taxi coach delivery truck trailer motorcycle evehicle custom1 custom2" speed="7.15" length="8.19" shape="456.28,302.13 458.41,301.30 459.99,300.09 461.01,298.50 461.48,296.54"/>
        <lane id=":864831429_5_1" index="1" allow="private emergency authority army vip passenger hov taxi coach delivery truck trailer motorcycle evehicle custom1 custom2" speed="8.58" length="12.13" shape="457.10,305.22 460.20,304.00 462.49,302.19 463.98,299.79 464.67,296.81"/>
    </edge>
    <edge id=":864831431_0" function="internal">
        <lane id=":864831431_0_0" index="0" disallow="pedestrian tram rail_urban rail rail_electric rail_fast ship" speed="27.78" length="25.04" shape="469.16,267.24 465.25,262.27 461.62,258.71 457.22,255.36 451.02,250.99"/>
        <lane id=":864831431_0_1" index="1" allow="private emergency authority army vip passenger hov taxi bus coach delivery truck trailer motorcycle evehicle custom1 custom2" speed="27.78" length="25.04" shape="471.75,265.36 467.78,260.32 464.00,256.58 459.37,252.99 452.87,248.38"/>
    </edge>
    <edge id=":864831431_2" function="internal">
        <lane id=":864831431_2_0" index="0" disallow="pedestrian tram rail_urban rail rail_electric rail_fast ship" speed="17.97" length="30.14" shape="456.54,243.19 463.44,249.11 468.26,253.93 473.54,256.75 481.79,256.69"/>
        <lane id=":864831431_2_1" index="1" allow="private emergency authority army vip passenger hov taxi bus coach delivery truck trailer motorcycle evehicle custom1 custom2" speed="18.65" length="32.53" shape="454.69,245.80 462.28,252.11 467.72,257.11 473.56,259.97 482.33,259.84"/>
    </edge>
    <edge id=":864831431_4" function="internal">
        <lane id=":864831431_4_0" index="0" allow="moped bicycle" speed="8.74" length="10.16" width="2.00" shape="454.37,268.11 456.54,264.58 456.45,260.91 455.22,258.91"/>
        <lane id=":864831431_4_1" index="1" allow="bus delivery moped bicycle" speed="9.20" length="12.27" shape="454.37,268.11 457.31,263.74 457.73,259.42 456.55,257.03"/>
    </edge>
    <edge id=":864831431_6" function="internal">
        <lane id=":864831431_6_0" index="0" allow="bus delivery moped bicycle" speed="16.67" length="28.34" shape="457.09,270.70 463.11,264.51 467.86,260.74 473.40,258.44 481.79,256.69"/>
        <lane id=":864831431_6_1" index="1" allow="bus delivery moped bicycle" speed="16.67" length="28.34" shape="458.90,272.42 464.58,266.71 469.14,263.36 474.43,261.40 482.33,259.84"/>
    </edge>
    <edge id=":864831431_8" function="internal">
        <lane id=":864831431_8_0" index="0" allow="moped bicycle" speed="8.74" length="8.20" width="2.00" shape="455.22,258.91 454.11,257.08 449.52,253.12"/>
    </edge>
    <edge id=":864831431_9" function="internal">
        <lane id=":864831431_9_0" index="0" allow="bus delivery moped bicycle" speed="9.20" length="8.30" shape="456.55,257.03 455.63,255.18 451.02,250.99"/>
    </edge>
    <edge id=":864831431_c0" function="crossing" crossingEdges="-ZS2 ZS2">
        <lane id=":864831431_c0_0" index="0" allow="pedestrian" speed="1.00" length="16.77" width="8.00" shape="452.21,256.24 461.89,242.54"/>
    </edge>
    <edge id=":864831431_w0" function="walkingarea">
        <lane id=":864831431_w0_0" index="0" allow="pedestrian" speed="1.00" length="16.52" width="8.00" shape="481.52,255.11 480.16,247.22 459.77,238.61 458.62,240.25 463.26,244.23 466.53,248.10 469.21,251.49 472.08,254.02 475.92,255.35"/>
    </edge>
    <edge id=":864831431_w1" function="walkingarea">
        <lane id=":864831431_w1_0" index="0" allow="pedestrian" speed="1.00" length="7.62" width="8.00" shape="448.94,253.93 447.79,255.57 448.94,262.94 452.56,266.39 454.02,264.40 454.66,262.37 454.47,260.32 453.46,258.22 451.61,256.10"/>
    </edge>
    <edge id=":864831446_0" function="internal">
        <lane id=":864831446_0_0" index="0" disallow="pedestrian tram rail_urban rail rail_electric rail_fast ship" speed="9.78" length="8.43" shape="469.07,281.56 470.50,279.67 470.93,278.04 470.84,276.20 470.68,273.68"/>
    </edge>
    <edge id=":864831446_1" function="internal">
        <lane id=":864831446_1_0" index="0" disallow="pedestrian tram rail_urban rail rail_electric rail_fast ship" speed="27.78" length="31.35" shape="469.07,281.56 476.19,274.87 482.50,270.48 488.63,267.47 495.21,264.93"/>
    </edge>
    <edge id=":864831446_2" function="internal">
        <lane id=":864831446_2_0" index="0" disallow="pedestrian tram rail_urban rail rail_electric rail_fast ship" speed="11.13" length="3.56" shape="471.30,283.86 473.24,281.40 473.38,280.99"/>
    </edge>
    <edge id=":864831446_3" function="internal">
        <lane id=":864831446_3_0" index="0" disallow="pedestrian tram rail_urban rail rail_electric rail_fast ship" speed="27.78" length="31.08" shape="471.30,283.86 478.41,277.22 484.67,272.94 490.76,270.05 497.33,267.56"/>
    </edge>
    <edge id=":864831446_4" function="internal">
        <lane id=":864831446_4_0" index="0" disallow="pedestrian tram rail_urban rail rail_electric rail_fast ship" speed="20.75" length="30.91" shape="471.30,283.86 478.61,277.42 485.37,273.76 492.04,271.87 499.11,270.75"/>
        <lane id=":864831446_4_1" index="1" disallow="pedestrian tram rail_urban rail rail_electric rail_fast ship" speed="17.36" length="30.91" shape="473.53,286.16 477.65,281.85 483.50,278.35 491.08,275.67 500.38,273.80"/>
    </edge>
    <edge id=":864831446_6" function="internal">
        <lane id=":864831446_6_0" index="0" disallow="pedestrian tram rail_urban rail rail_electric rail_fast ship" speed="11.13" length="7.45" shape="473.38,280.99 473.97,279.30 474.01,276.93 473.88,273.65"/>
    </edge>
    <edge id=":864831473_0" function="internal">
        <lane id=":864831473_0_0" index="0" allow="authority army vip hov motorcycle moped bicycle evehicle custom1 custom2" speed="18.05" length="26.74" width="7.40" shape="523.88,237.62 527.74,264.11"/>
        <lane id=":864831473_0_1" index="1" disallow="pedestrian tram rail_urban rail rail_electric rail_fast ship" speed="18.05" length="26.74" width="7.40" shape="521.34,238.19 527.74,264.11"/>
    </edge>
    <edge id=":864831473_2" function="internal">
        <lane id=":864831473_2_0" index="0" allow="moped bicycle" speed="7.62" length="13.27" width="2.00" shape="513.34,251.27 515.29,250.23 516.33,247.91 516.46,244.32 515.68,239.46"/>
        <lane id=":864831473_2_1" index="1" disallow="pedestrian tram rail_urban rail rail_electric rail_fast ship" speed="8.10" length="15.15" shape="513.34,251.27 516.41,250.02 518.25,247.54 518.85,243.83 518.22,238.89"/>
    </edge>
    <edge id=":864831473_4" function="internal">
        <lane id=":864831473_4_0" index="0" disallow="pedestrian tram rail_urban rail rail_electric rail_fast ship" speed="9.44" length="18.92" width="7.40" shape="513.91,254.42 518.85,254.33 522.81,255.91 525.77,259.17 527.74,264.11"/>
    </edge>
    <edge id=":864831473_5" function="internal">
        <lane id=":864831473_5_0" index="0" allow="moped bicycle" speed="9.62" length="21.61" width="2.00" shape="514.92,259.90 516.89,258.26 517.68,254.31 517.27,248.04 515.68,239.46"/>